geometry optimzed in LAMMPS
_audit_creation_date              2020-11-30 
_audit_creation_method            'lammps2cif' 
_symmetry_space_group_name_H-M    'P1' 
_symmetry_Int_Tables_number       1 
_symmetry_cell_setting            triclinic 
loop_ 
_symmetry_equiv_pos_as_xyz 
  x,y,z 
_cell_length_a                    43.65840822936661 
_cell_length_b                    43.66426148276682 
_cell_length_c                    40.53132244126016 
_cell_angle_alpha                 89.92607077955131 
_cell_angle_beta                  90.05912845393858 
_cell_angle_gamma                 90.06054908707559 
loop_ 
_atom_site_label 
_atom_site_type_symbol 
_atom_site_fract_x 
_atom_site_fract_y 
_atom_site_fract_z 
_atom_site_charge 
Zr1        Zr  0.14823339  0.77095507  0.13041890     2.17510
O2          O  0.17536755  0.81093252  0.10020510    -0.51170
O3          O  0.14796250  0.73253375  0.08660074    -0.74370
O4          O  0.20363673  0.76205991  0.13048680    -0.81160
O5          O  0.06632629  0.80363208  0.11040071    -0.82900
O6          O  0.21883614  0.74304513  0.18043202    -0.78530
O7          O  0.11515497  0.80160487  0.09098308    -0.90160
O8          O  0.14901275  0.68866376  0.11542777    -0.76120
O9          O  0.15796387  0.72333330  0.15834976    -0.85610
O10         O  0.10137268  0.74333770  0.12934540    -0.85300
O11         O  0.16550524  0.78153669  0.18635649    -0.72060
O12         O  0.11394055  0.80180077  0.16205589    -0.84200
Zr13       Zr  0.09303484  0.73679892  0.24434450     2.26420
Zr14       Zr  0.17407762  0.73316227  0.21395684     2.06270
Zr15       Zr  0.06703298  0.77356981  0.16104346     2.10050
Zr16       Zr  0.11123823  0.69579779  0.15730329     1.78760
O17         O  0.03996373  0.81918642  0.17977397    -0.93000
O18         O  0.13306789  0.64491114  0.16488565    -0.40810
O19         O  0.07746069  0.72624367  0.18826884    -0.77440
O20         O  0.12708818  0.70509581  0.21287475    -0.96130
O21         O  0.14014379  0.76418550  0.24600494    -0.89430
O22         O  0.08319976  0.78445494  0.21600393    -0.92270
C23         C  0.14828241  0.70317842  0.08828766     1.01480
C24         C  0.08669471  0.81057267  0.08884915     1.14410
C25         C  0.22413197  0.75264304  0.15107205     1.05190
O26         O  0.20720982  0.68848844  0.21032127    -0.94430
O27         O  0.16908364  0.69861564  0.26204188    -0.90170
O28         O  0.12400981  0.71212438  0.28577060    -0.83320
C29         C  0.14860342  0.69626755  0.28480423     1.11830
O30         O  0.16525968  0.85168379  0.19992216    -0.96400
Zr31       Zr  0.13026090  0.81148914  0.21811753     1.88940
O32         O  0.07845974  0.77802502  0.28319246    -0.73050
O33         O  0.20808267  0.75882763  0.25272274    -0.52310
O34         O  0.16835234  0.81895288  0.26135513    -0.96990
O35         O  0.10610854  0.86112026  0.20907083    -0.54210
O36         O  0.09848833  0.82339659  0.26606078    -0.73570
C37         C  0.08148059  0.80739856  0.28539348     0.98770
O38         O  0.06782479  0.69090743  0.26641695    -0.62390
O39         O  0.02327932  0.75572559  0.12898144    -0.57190
O40         O  0.03885924  0.73359975  0.24943965    -0.93870
O41         O  0.04413014  0.73514786  0.19633510    -0.92300
O42         O  0.07318422  0.68680788  0.11420187    -0.92660
O43         O  0.07757051  0.65470995  0.17591609    -0.91440
C44         C  0.02928952  0.74288485  0.22184062     1.17620
H45         H  0.09365990  0.74067892  0.10718226     0.33560
H46         H  0.12901820  0.68522220  0.22311122     0.44410
H47         H  0.06699201  0.79597799  0.22612461     0.37940
H48         H  0.18454016  0.79278838  0.18538422     0.34420
H49         H  0.13166721  0.63503057  0.14295522     0.26210
H50         H  0.22545554  0.74449682  0.25553365     0.32150
H51         H  0.15981854  0.83530414  0.27552199     0.38060
H52         H  0.06957560  0.66442769  0.11396611     0.32510
H53         H  0.03033993  0.75567723  0.10577602     0.31390
H54         H  0.04934677  0.83622481  0.16719425     0.33070
H55         H  0.11124009  0.87335404  0.22888587     0.32040
H56         H  0.07978580  0.65451163  0.20022401     0.36040
H57         H  0.05696572  0.68145347  0.24751156     0.28770
H58         H  0.18772572  0.80005242  0.08343947     0.33010
H59         H  0.16843313  0.86509832  0.21930803     0.35860
H60         H  0.02129190  0.73374889  0.13461344     0.28470
H61         H  0.08418327  0.67590144  0.27110813     0.41340
H62         H  0.20213848  0.67916072  0.18874072     0.31390
H63         H  0.15523590  0.64849254  0.16830906     0.39010
H64         H  0.08387400  0.85712755  0.21112124     0.30860
H65         H  0.21675950  0.77623802  0.24013952     0.30920
H66         H  0.19048780  0.81934892  0.11601745     0.31190
Zr67       Zr  0.87350400  0.79813335  0.13261470     2.17510
O68         O  0.84637390  0.76060464  0.09897500    -0.51170
O69         O  0.87805162  0.83750058  0.08992170    -0.74370
O70         O  0.81853578  0.80936490  0.12908500    -0.81160
O71         O  0.95364334  0.75770880  0.11963990    -0.82900
O72         O  0.80312289  0.83211869  0.17698278    -0.78530
O73         O  0.90691089  0.76509911  0.09601101    -0.90160
O74         O  0.88164182  0.88096153  0.11935197    -0.76120
O75         O  0.86741688  0.84676908  0.15936145    -0.85610
O76         O  0.92309030  0.82003920  0.13545397    -0.85300
O77         O  0.85164969  0.78990065  0.18704446    -0.72060
O78         O  0.90229308  0.76436280  0.16704226    -0.84200
Zr79       Zr  0.92363101  0.82704432  0.25150736     2.26420
Zr80       Zr  0.84642164  0.83923583  0.21355388     2.06270
Zr81       Zr  0.95194863  0.78717900  0.17043125     2.10050
Zr82       Zr  0.91721512  0.86843860  0.16202952     1.78760
O83         O  0.97307826  0.73607368  0.18026112    -0.93000
O84         O  0.90024311  0.92086842  0.17169871    -0.40810
O85         O  0.94574402  0.83535062  0.19701736    -0.77440
O86         O  0.89673925  0.86155644  0.21567037    -0.96130
O87         O  0.87396739  0.80463615  0.24856020    -0.89430
O88         O  0.93092573  0.77843421  0.22347705    -0.92270
C89         C  0.88004221  0.86677681  0.09207116     1.01480
C90         C  0.93440447  0.75332661  0.09621072     1.14410
C91         C  0.79805488  0.82112243  0.14815591     1.05190
O92         O  0.81204433  0.88291879  0.20941796    -0.94430
O93         O  0.85588107  0.87891968  0.25570953    -0.90170
O94         O  0.88803189  0.85294953  0.28847999    -0.83320
C95         C  0.87399705  0.87765362  0.28072955     1.11830
O96         O  0.84349747  0.72025928  0.20029287    -0.96400
Zr97       Zr  0.88134235  0.75646277  0.22137431     1.88940
O98         O  0.93179070  0.78454965  0.29149616    -0.73050
O99         O  0.81206039  0.81674879  0.25416096    -0.52310
O100        O  0.84105618  0.75117636  0.26252461    -0.96990
O101        O  0.90116019  0.70495284  0.21241855    -0.54210
O102        O  0.91009124  0.74128966  0.27036121    -0.73570
C103        C  0.92673221  0.75530829  0.29167570     0.98770
O104        O  0.95269747  0.87242009  0.26835908    -0.62390
O105        O  0.99455729  0.80819044  0.13910116    -0.57190
O106        O  0.97524981  0.82432727  0.26924443    -0.93870
O107        O  0.97170799  0.81879186  0.21621505    -0.92300
O108        O  0.95481082  0.87499116  0.11805075    -0.92660
O109        O  0.95704749  0.90434305  0.17889355    -0.91440
C110        C  0.98540881  0.81219897  0.24335140     1.17620
H111        H  0.93228496  0.82171103  0.11386124     0.33560
H112        H  0.89823018  0.88212227  0.22410512     0.44410
H113        H  0.94553486  0.76508771  0.23398895     0.37940
H114        H  0.83172818  0.78050794  0.18479883     0.34420
H115        H  0.90317963  0.93152874  0.15035167     0.26210
H116        H  0.79798562  0.83360791  0.26015424     0.32150
H117        H  0.84736906  0.73347324  0.27621408     0.38060
H118        H  0.95743556  0.89737985  0.11543943     0.32510
H119        H  0.98886384  0.80562761  0.11561516     0.31390
H120        H  0.95768149  0.72168618  0.17123583     0.33070
H121        H  0.89372073  0.69280427  0.23144632     0.32040
H122        H  0.95275985  0.90873589  0.20239069     0.36040
H123        H  0.96614651  0.87746720  0.24944713     0.28770
H124        H  0.83553983  0.77262606  0.08183555     0.33010
H125        H  0.83859933  0.70641239  0.21892211     0.35860
H126        H  0.99298925  0.83054720  0.14273692     0.28470
H127        H  0.93782706  0.88941087  0.26853910     0.41340
H128        H  0.82191267  0.89659761  0.19306737     0.31390
H129        H  0.87774378  0.91932128  0.17428639     0.39010
H130        H  0.92349556  0.70674547  0.21615870     0.30860
H131        H  0.79921129  0.80231910  0.24135696     0.30920
H132        H  0.82999605  0.75233968  0.11334982     0.31190
Zr133      Zr  0.03082194  0.64634569  0.49188919     2.17510
O134        O  0.99635769  0.61728074  0.52745635    -0.51170
O135        O  0.07468684  0.65246915  0.03360597    -0.74370
O136        O  0.04265292  0.59157275  0.49199152    -0.81160
O137        O  0.98630379  0.72261969  0.01281356    -0.82900
O138        O  0.06447836  0.57704830  0.44326527    -0.78530
O139        O  0.99958167  0.67675274  0.03516905    -0.90160
O140        O  0.11610366  0.66068563  0.00159389    -0.76120
O141        O  0.07903457  0.64207327  0.46366016    -0.85610
O142        O  0.05243276  0.69617355  0.49030750    -0.85300
O143        O  0.02189712  0.62536943  0.43703925    -0.72060
O144        O  0.99510070  0.67442494  0.45911900    -0.84200
Zr145      Zr  0.05577604  0.70048096  0.37579362     2.26420
Zr146      Zr  0.07083949  0.62204202  0.40916654     2.06270
Zr147      Zr  0.01700115  0.72469644  0.45840773     2.10050
Zr148      Zr  0.10002211  0.69221763  0.46164182     1.78760
O149        O  0.96354984  0.74023192  0.45412100    -0.93000
O150        O  0.15289458  0.67710044  0.45143740    -0.40810
O151        O  0.06498879  0.72170005  0.42979514    -0.77440
O152        O  0.09227014  0.67228008  0.40776433    -0.96130
O153        O  0.03508825  0.65010652  0.37612503    -0.89430
O154        O  0.00876033  0.70331274  0.40515997    -0.92270
C155        C  0.10353633  0.65710780  0.02961365     1.01480
C156        C  0.98548735  0.70319500  0.03634297     1.14410
C157        C  0.05392872  0.57145974  0.47215080     1.05190
O158        O  0.11924810  0.59517351  0.41618429    -0.94430
O159        O  0.10454331  0.62941723  0.36053450    -0.90170
O160        O  0.09209645  0.67617217  0.33973905    -0.83320
C161        C  0.10795575  0.65154791  0.33965828     1.11830
O162        O  0.95202433  0.61483724  0.42335546    -0.96400
Zr163      Zr  0.98705211  0.65448771  0.40398284     1.88940
O164        O  0.01474493  0.70666497  0.33470426    -0.73050
O165        O  0.05053881  0.58417491  0.37091697    -0.52310
O166        O  0.98357341  0.61515894  0.36158087    -0.96990
O167        O  0.93533031  0.67338078  0.41370118    -0.54210
O168        O  0.97130000  0.68531961  0.35571946    -0.73570
C169        C  0.98555291  0.70214103  0.33451570     0.98770
O170        O  0.09093700  0.72819360  0.34021357    -0.62390
O171        O  0.04132846  0.76500377  0.49079579    -0.57190
O172        O  0.05401748  0.75434528  0.38464920    -0.93870
O173        O  0.02148353  0.76827694  0.42273275    -0.92300
O174        O  0.10741120  0.72977389  0.50547555    -0.92660
O175        O  0.13440597  0.73196955  0.44132458    -0.91440
C176        C  0.02816467  0.76501305  0.39240191     1.17620
H177        H  0.05501785  0.70533780  0.01235577     0.33560
H178        H  0.11236693  0.67278383  0.39794657     0.44410
H179        H  0.99404046  0.71630137  0.39514132     0.37940
H180        H  0.01290393  0.60524208  0.43892672     0.34420
H181        H  0.16364217  0.68055548  0.47264268     0.26210
H182        H  0.06644041  0.56804144  0.37012158     0.32150
H183        H  0.96671641  0.62199985  0.34697847     0.38060
H184        H  0.12944014  0.73512876  0.50493700     0.32510
H185        H  0.04175534  0.75748840  0.51384184     0.31390
H186        H  0.96269557  0.76205522  0.46023170     0.33070
H187        H  0.92368346  0.66798455  0.39354656     0.32040
H188        H  0.13082509  0.73247725  0.41720146     0.36040
H189        H  0.07900987  0.74560122  0.33153070     0.28770
H190        H  0.01571499  0.60507563  0.04707407     0.33010
H191        H  0.93768906  0.61111104  0.40483897     0.35860
H192        H  0.05787100  0.76557823  0.98535692     0.28470
H193        H  0.10621688  0.73748496  0.35528389     0.41340
H194        H  0.12645641  0.60120454  0.43841944     0.31390
H195        H  0.15214138  0.65455197  0.44903795     0.39010
H196        H  0.93723448  0.69596233  0.41279947     0.30860
H197        H  0.03321953  0.57457638  0.38283779     0.30600
H198        H  0.98717619  0.60136674  0.51312700     0.31190
Zr199      Zr  0.99086293  0.92301683  0.49458065     2.17510
O200        O  0.02708252  0.95051311  0.52953481    -0.51170
O201        O  0.95151202  0.91695037  0.03392521    -0.74370
O202        O  0.97835138  0.97770834  0.49758381    -0.81160
O203        O  0.03400213  0.84409182  0.00372047    -0.82900
O204        O  0.95950056  0.99365955  0.44783280    -0.78530
O205        O  0.02296525  0.88889248  0.02982464    -0.90160
O206        O  0.90778903  0.91181128  0.00468786    -0.76120
O207        O  0.94379477  0.93043902  0.46473130    -0.85610
O208        O  0.96726326  0.87431774  0.49046162    -0.85300
O209        O  0.00231858  0.94493111  0.44079817    -0.72060
O210        O  0.02581618  0.89335053  0.46244896    -0.84200
Zr211      Zr  0.96910879  0.87453095  0.37574632     2.26420
Zr212      Zr  0.95454683  0.95095501  0.41086603     2.06270
Zr213      Zr  0.00117757  0.84452997  0.45796866     2.10050
Zr214      Zr  0.92076570  0.88134479  0.46095512     1.78760
O215        O  0.04874817  0.81729968  0.44731876    -0.93000
O216        O  0.86906149  0.89981648  0.45013595    -0.40810
O217        O  0.95528206  0.85268664  0.42814679    -0.77440
O218        O  0.93169378  0.90104449  0.40793905    -0.96130
O219        O  0.99159975  0.92369391  0.37871632    -0.89430
O220        O  0.01507947  0.86555267  0.40600882    -0.92270
C221        C  0.92233993  0.91359961  0.03180671     1.01480
C222        C  0.03606956  0.86202782  0.02873204     1.14410
C223        C  0.96805396  0.99830090  0.47759908     1.05190
O224        O  0.91119803  0.98594543  0.41226284    -0.94430
O225        O  0.91659411  0.94115200  0.36676587    -0.90170
O226        O  0.94381759  0.90833711  0.33633500    -0.83320
C227        C  0.91865244  0.92203145  0.34273080     1.11830
O228        O  0.07322161  0.95103261  0.43463040    -0.96400
Zr229      Zr  0.03770635  0.91492173  0.40913946     1.88940
O230        O  0.01252673  0.86343530  0.33881229    -0.73050
O231        O  0.97854834  0.98559872  0.37153943    -0.52310
O232        O  0.04555309  0.95678930  0.37025240    -0.96990
O233        O  0.08866280  0.89443829  0.41989724    -0.54210
O234        O  0.05433755  0.88797000  0.35924185    -0.73570
C235        C  0.04135628  0.86985103  0.33850701     0.98770
O236        O  0.93347674  0.84385686  0.34367251    -0.62390
O237        O  0.97840824  0.80702459  0.49542078    -0.57190
O238        O  0.96765884  0.82193034  0.36954266    -0.93870
O239        O  0.97829823  0.80562707  0.42174441    -0.92300
O240        O  0.91298987  0.84038279  0.50113496    -0.92660
O241        O  0.88388344  0.84491174  0.43863188    -0.91440
C242        C  0.97154231  0.80140627  0.39104001     1.17620
H243        H  0.96624428  0.86463317  0.00865740     0.33560
H244        H  0.91170699  0.89900209  0.39810637     0.44410
H245        H  0.02821474  0.85046396  0.39599468     0.37940
H246        H  0.01169192  0.96477462  0.44380377     0.34420
H247        H  0.85778011  0.89656681  0.47103991     0.26210
H248        H  0.96180325  0.99940418  0.36445348     0.32150
H249        H  0.06386712  0.95081726  0.35740046     0.38060
H250        H  0.89069314  0.83626701  0.50121608     0.32510
H251        H  0.99301854  0.78988420  0.49629192     0.31390
H252        H  0.06515149  0.83195275  0.45327216     0.33070
H253        H  0.10137162  0.90160431  0.40118478     0.32040
H254        H  0.89098983  0.84102504  0.41582476     0.36040
H255        H  0.91285099  0.85069909  0.35047640     0.28770
H256        H  0.01499373  0.96071175  0.04479771     0.33010
H257        H  0.08763239  0.95721791  0.41698404     0.35860
H258        H  0.98972224  0.80886877  0.01135553     0.28470
H259        H  0.93602955  0.85097379  0.32077528     0.41340
H260        H  0.89653940  0.97623467  0.42770699     0.31390
H261        H  0.87122816  0.92232653  0.44826784     0.39010
H262        H  0.08660969  0.87210804  0.41634185     0.30860
H263        H  0.99209482  0.99868477  0.38516105     0.30920
H264        H  0.03544227  0.96708803  0.51546975     0.31190
Zr265      Zr  0.64946827  0.80062646  0.11997128     2.17510
O266        O  0.67836783  0.76418202  0.15333848    -0.51170
O267        O  0.64814475  0.83955100  0.16359169    -0.74370
O268        O  0.70474642  0.80980308  0.11720398    -0.81160
O269        O  0.56913554  0.76238594  0.13843421    -0.82900
O270        O  0.71831275  0.82961392  0.06708589    -0.78530
O271        O  0.61832161  0.76500447  0.15668730    -0.90160
O272        O  0.64970367  0.88205305  0.13295931    -0.76120
O273        O  0.65741843  0.84825806  0.09110471    -0.85610
O274        O  0.60203753  0.82716393  0.12222806    -0.85300
O275        O  0.66572165  0.79037977  0.06355697    -0.72060
O276        O  0.61530089  0.76902546  0.08921745    -0.84200
Zr277      Zr  0.59045746  0.83177299  0.00673218     2.26420
Zr278      Zr  0.67218925  0.83871571  0.03497954     2.06270
Zr279      Zr  0.56778215  0.79599183  0.09126704     2.10050
Zr280      Zr  0.61014298  0.87464534  0.09317089     1.78760
O281        O  0.53994832  0.75066536  0.07270053    -0.93000
O282        O  0.62989318  0.92649516  0.08622208    -0.40810
O283        O  0.57731459  0.84278914  0.06305514    -0.77440
O284        O  0.62422252  0.86515816  0.03714929    -0.96130
O285        O  0.63848419  0.80615404  0.00379560    -0.89430
O286        O  0.58257701  0.78447956  0.03597792    -0.92270
C287        C  0.64810531  0.86884492  0.16074300     1.01480
C288        C  0.59030074  0.75451976  0.15849162     1.14410
C289        C  0.72456938  0.81971943  0.09616674     1.05190
O290        O  0.70441466  0.88413661  0.03841530    -0.94430
O291        O  0.66371797  0.87060511  0.48545692    -0.90170
O292        O  0.61307381  0.86792188  0.47273023    -0.83320
C293        C  0.63999212  0.87902250  0.46859067     1.11830
O294        O  0.66794501  0.72074549  0.05073780    -0.96400
Zr295      Zr  0.63069067  0.75903195  0.03303262     1.88940
O296        O  0.57103775  0.78836280  0.47252438    -0.73050
O297        O  0.70563845  0.81404363  0.99505496    -0.52310
O298        O  0.66735476  0.75261642  0.98830118    -0.96990
O299        O  0.60959730  0.70839964  0.04449814    -0.54210
O300        O  0.59364517  0.74381530  0.48814549    -0.73570
C301        C  0.57476036  0.75912904  0.47027107     0.98770
O302        O  0.55691040  0.86488297  0.97464354    -0.62390
O303        O  0.52627037  0.81155677  0.12778613    -0.57190
O304        O  0.53614378  0.83986665  0.00897723    -0.93870
O305        O  0.54105722  0.83617569  0.06192658    -0.92300
O306        O  0.57141595  0.88181622  0.13590528    -0.92660
O307        O  0.57681195  0.91551370  0.07346119    -0.91440
C308        C  0.52658878  0.82914935  0.03595920     1.17620
H309        H  0.59463677  0.82966846  0.14451787     0.33560
H310        H  0.62513086  0.88524133  0.02727590     0.44410
H311        H  0.56632444  0.77245098  0.02664231     0.37940
H312        H  0.68504451  0.77964825  0.06403107     0.34420
H313        H  0.62976595  0.93563362  0.10856337     0.26210
H314        H  0.72270143  0.82872176  0.99195567     0.32150
H315        H  0.65919542  0.73542169  0.97502381     0.38060
H316        H  0.56419865  0.90319501  0.13364024     0.32510
H317        H  0.53387698  0.80790549  0.15046799     0.31390
H318        H  0.55049149  0.73321917  0.08339915     0.33070
H319        H  0.61427124  0.69603437  0.02466537     0.32040
H320        H  0.56955281  0.90835562  0.05163239     0.36040
H321        H  0.56486753  0.88599200  0.97732578     0.28770
H322        H  0.69102030  0.77674950  0.16844580     0.33010
H323        H  0.67156195  0.70751992  0.03130599     0.35860
H324        H  0.52563982  0.83414880  0.12591392     0.28470
H325        H  0.56089192  0.85926221  0.95143596     0.41340
H326        H  0.69937604  0.89329380  0.06007452     0.31390
H327        H  0.65185147  0.92379256  0.08091138     0.39010
H328        H  0.58711770  0.71120393  0.04374788     0.30860
H329        H  0.71490507  0.79669380  0.00723204     0.30920
H330        H  0.69313534  0.75453384  0.13801874     0.31190
Zr331      Zr  0.37297187  0.77053761  0.11739584     2.17510
O332        O  0.34611996  0.80878336  0.15020869    -0.51170
O333        O  0.37535037  0.73042219  0.15945734    -0.74370
O334        O  0.31769294  0.76083412  0.11860951    -0.81160
O335        O  0.45446502  0.80648901  0.13505281    -0.82900
O336        O  0.30214889  0.74026882  0.06952765    -0.78530
O337        O  0.40683597  0.80082491  0.15691485    -0.90160
O338        O  0.37769459  0.68729195  0.12934635    -0.76120
O339        O  0.36545971  0.72279246  0.08901238    -0.85610
O340        O  0.42142950  0.74645999  0.11521274    -0.85300
O341        O  0.35297114  0.78058439  0.06232051    -0.72060
O342        O  0.40355764  0.80395728  0.08455151    -0.84200
Zr343      Zr  0.42554978  0.74152151  0.00040670     2.26420
Zr344      Zr  0.34621902  0.73209145  0.03436023     2.06270
Zr345      Zr  0.45238848  0.77958847  0.08273476     2.10050
Zr346      Zr  0.41409509  0.69880644  0.08713144     1.78760
O347        O  0.46870156  0.83242630  0.07212054    -0.93000
O348        O  0.39489397  0.64717101  0.07712337    -0.40810
O349        O  0.44549949  0.73182193  0.05516779    -0.77440
O350        O  0.39490619  0.70737060  0.03285448    -0.96130
O351        O  0.37671644  0.76570895  0.00136887    -0.89430
O352        O  0.43346032  0.78955325  0.02892385    -0.92270
C353        C  0.37660831  0.70114328  0.15685393     1.01480
C354        C  0.43497261  0.81113851  0.15808179     1.14410
C355        C  0.29707832  0.75052385  0.09866807     1.05190
O356        O  0.31531534  0.68589130  0.03947200    -0.94430
O357        O  0.35342088  0.70152450  0.48484372    -0.90170
O358        O  0.40189057  0.71024890  0.46668564    -0.83320
C359        C  0.37590827  0.69664578  0.46492419     1.11830
O360        O  0.34768850  0.85080197  0.04913238    -0.96400
Zr361      Zr  0.38473620  0.81325389  0.02940881     1.88940
O362        O  0.43541296  0.79058702  0.46389717    -0.73050
O363        O  0.30976925  0.75568348  0.99663587    -0.52310
O364        O  0.34533581  0.81894609  0.98724287    -0.96990
O365        O  0.40546176  0.86444108  0.03847586    -0.54210
O366        O  0.40824339  0.83133265  0.48280658    -0.73570
C367        C  0.42678073  0.81885245  0.46241166     0.98770
O368        O  0.45255772  0.69493424  0.98378930    -0.62390
O369        O  0.49537242  0.76023804  0.11486002    -0.57190
O370        O  0.47827251  0.74490263  0.98638083    -0.93870
O371        O  0.47647293  0.74804569  0.03968799    -0.92300
O372        O  0.45145929  0.69014875  0.13098711    -0.92660
O373        O  0.45181055  0.66141334  0.06873124    -0.91440
C374        C  0.48892885  0.75623232  0.01244636     1.17620
H375        H  0.43006489  0.74384210  0.13698548     0.33560
H376        H  0.39394265  0.68740944  0.02273696     0.44410
H377        H  0.44854578  0.80248478  0.01863519     0.37940
H378        H  0.33342044  0.79074871  0.06417819     0.34420
H379        H  0.39746099  0.63625812  0.09838045     0.26210
H380        H  0.29298638  0.74051790  0.99471973     0.32150
H381        H  0.35268490  0.83586763  0.97301231     0.38060
H382        H  0.45457908  0.66771529  0.13188483     0.32510
H383        H  0.48918792  0.76167926  0.13829265     0.31390
H384        H  0.47907757  0.83967661  0.09235664     0.33070
H385        H  0.39906028  0.87645896  0.01891324     0.32040
H386        H  0.44650276  0.65714589  0.04543719     0.36040
H387        H  0.46639110  0.68992356  0.00239610     0.28770
H388        H  0.33434402  0.79703156  0.16682883     0.33010
H389        H  0.34302095  0.86412724  0.02999601     0.35860
H390        H  0.49499645  0.73793024  0.11051676     0.28470
H391        H  0.43707243  0.67838836  0.98426187     0.41340
H392        H  0.32106270  0.67720863  0.06118894     0.31390
H393        H  0.37247327  0.64960681  0.07457882     0.39010
H394        H  0.42787450  0.86215248  0.03585656     0.30860
H395        H  0.30074254  0.77279827  0.00932828     0.30920
H396        H  0.33048993  0.81761249  0.13525289     0.31190
Zr397      Zr  0.49012605  0.64516955  0.25392803     2.17510
O398        O  0.52303007  0.61534288  0.21753774    -0.51170
O399        O  0.44928466  0.65091710  0.21287797    -0.74370
O400        O  0.47717090  0.59064724  0.25414625    -0.81160
O401        O  0.53721685  0.72108890  0.23771844    -0.82900
O402        O  0.45502205  0.57679657  0.30302125    -0.78530
O403        O  0.52451121  0.67548313  0.21466511    -0.90160
O404        O  0.40676337  0.65695410  0.24346695    -0.76120
O405        O  0.44212140  0.64183012  0.28290136    -0.85610
O406        O  0.46984318  0.69552307  0.25589039    -0.85300
O407        O  0.49869482  0.62398277  0.30892055    -0.72060
O408        O  0.52749072  0.67179027  0.28618790    -0.84200
Zr409      Zr  0.46712133  0.70118848  0.36987320     2.26420
Zr410      Zr  0.45005651  0.62186212  0.33748108     2.06270
Zr411      Zr  0.50724717  0.72259466  0.28693627     2.10050
Zr412      Zr  0.42226179  0.69226811  0.28511843     1.78760
O413        O  0.56029201  0.73717072  0.29719452    -0.93000
O414        O  0.36933522  0.67818035  0.29690819    -0.40810
O415        O  0.45903540  0.72071413  0.31515736    -0.77440
O416        O  0.42973955  0.67258879  0.33930428    -0.96130
O417        O  0.48629901  0.65002905  0.36966688    -0.89430
O418        O  0.51459148  0.70186538  0.34096499    -0.92270
C419        C  0.42020101  0.65449107  0.21583146     1.01480
C420        C  0.53896912  0.70176703  0.21432522     1.14410
C421        C  0.46544969  0.57086130  0.27413253     1.05190
O422        O  0.40029515  0.59726416  0.33145693    -0.94430
O423        O  0.41861438  0.62954306  0.38776324    -0.90170
O424        O  0.43152411  0.67679307  0.40679247    -0.83320
C425        C  0.41599825  0.65201501  0.40828517     1.11830
O426        O  0.56926074  0.61312915  0.32073619    -0.96400
Zr427      Zr  0.53435829  0.65207825  0.34175810     1.88940
O428        O  0.50918121  0.70813875  0.40968343    -0.73050
O429        O  0.46985887  0.58279831  0.37473057    -0.52310
O430        O  0.53731438  0.60973240  0.38081596    -0.96990
O431        O  0.58624765  0.67156917  0.33428485    -0.54210
O432        O  0.54930887  0.67874033  0.39286036    -0.73570
C433        C  0.53708178  0.69867295  0.41223311     0.98770
O434        O  0.43677300  0.74019898  0.39852517    -0.62390
O435        O  0.48866040  0.76470900  0.25282343    -0.57190
O436        O  0.46750551  0.75221143  0.34973230    -0.93870
O437        O  0.50526318  0.76773231  0.31923617    -0.92300
O438        O  0.41447683  0.73003650  0.24153445    -0.92660
O439        O  0.38962472  0.73287797  0.30651158    -0.91440
C440        C  0.49337891  0.76481907  0.34753196     1.17620
H441        H  0.46753299  0.70414863  0.23407324     0.33560
H442        H  0.40980266  0.67334097  0.34949342     0.44410
H443        H  0.52958536  0.71429618  0.35149475     0.37940
H444        H  0.50719196  0.60366051  0.30706895     0.34420
H445        H  0.35817558  0.68160903  0.27594557     0.26210
H446        H  0.45321534  0.56743510  0.37618889     0.32150
H447        H  0.55449657  0.61510983  0.39568955     0.38060
H448        H  0.39242969  0.73525003  0.24233760     0.32510
H449        H  0.48867655  0.75692556  0.22989581     0.31390
H450        H  0.56514956  0.75354008  0.28120908     0.33070
H451        H  0.59786855  0.66390596  0.35359330     0.32040
H452        H  0.39129557  0.73103075  0.33079784     0.36040
H453        H  0.42073066  0.74648732  0.38260856     0.28770
H454        H  0.50900975  0.60443390  0.20233160     0.33010
H455        H  0.58399111  0.60904984  0.33880259     0.35860
H456        H  0.46669735  0.76656651  0.25852639     0.28470
H457        H  0.42487393  0.73015598  0.41608671     0.41340
H458        H  0.39423114  0.60136902  0.30832560     0.31390
H459        H  0.36969660  0.65564865  0.29964123     0.39010
H460        H  0.58462176  0.69390398  0.33801953     0.30860
H461        H  0.48622863  0.57243509  0.36208179     0.30920
H462        H  0.53209407  0.59915636  0.23161547     0.31190
Zr463      Zr  0.53155198  0.92251707  0.25513177     2.17510
O464        O  0.49543020  0.94871323  0.21887297    -0.51170
O465        O  0.57179106  0.91852349  0.21310662    -0.74370
O466        O  0.53940570  0.97847506  0.25431877    -0.81160
O467        O  0.49333966  0.84131226  0.24038052    -0.82900
O468        O  0.55783827  0.99481129  0.30407194    -0.78530
O469        O  0.49897788  0.88879637  0.21797302    -0.90160
O470        O  0.61465534  0.91894631  0.24362631    -0.76120
O471        O  0.57845869  0.93176328  0.28473350    -0.85610
O472        O  0.55758021  0.87466187  0.25795246    -0.85300
O473        O  0.51922142  0.94250315  0.30954899    -0.72060
O474        O  0.49846782  0.89033298  0.28696740    -0.84200
Zr475      Zr  0.55775654  0.87271664  0.37097034     2.26420
Zr476      Zr  0.56694608  0.95098482  0.33896154     2.06270
Zr477      Zr  0.52513295  0.84248942  0.28990352     2.10050
Zr478      Zr  0.60415165  0.88384918  0.28732158     1.78760
O479        O  0.47643427  0.81723782  0.30105588    -0.93000
O480        O  0.65590598  0.90367559  0.29486117    -0.40810
O481        O  0.57177358  0.85133300  0.31870980    -0.77440
O482        O  0.59317508  0.90330655  0.34079838    -0.96130
O483        O  0.53226721  0.92036146  0.37039966    -0.89430
O484        O  0.51168828  0.86201900  0.34180136    -0.92270
C485        C  0.60108514  0.91742186  0.21600289     1.01480
C486        C  0.48791554  0.86096641  0.21755112     1.14410
C487        C  0.54824315  0.99951835  0.27462623     1.05190
O488        O  0.61268682  0.98263117  0.33437702    -0.94430
O489        O  0.59938313  0.94400732  0.38923238    -0.90170
O490        O  0.58019470  0.90179488  0.41449219    -0.83320
C491        C  0.59886751  0.92421565  0.41303395     1.11830
O492        O  0.44908428  0.94624759  0.31871838    -0.96400
Zr493      Zr  0.48603156  0.90980059  0.34102652     1.88940
O494        O  0.51604887  0.85915546  0.40861708    -0.73050
O495        O  0.54318609  0.98747436  0.37634791    -0.52310
O496        O  0.47889242  0.94751290  0.38457727    -0.96990
O497        O  0.43472060  0.89010040  0.33032958    -0.54210
O498        O  0.47119178  0.87709437  0.38770223    -0.73570
C499        C  0.48660352  0.86050234  0.40805992     0.98770
O500        O  0.60229394  0.84702644  0.39495019    -0.62390
O501        O  0.54403949  0.80210291  0.25385877    -0.57190
O502        O  0.55114795  0.82119519  0.38078438    -0.93870
O503        O  0.54908539  0.80477681  0.32756596    -0.92300
O504        O  0.61283879  0.84342460  0.24684937    -0.92660
O505        O  0.64367368  0.85070079  0.31033524    -0.91440
C506        C  0.54988841  0.80055483  0.35916152     1.17620
H507        H  0.56072128  0.86597098  0.23631532     0.33560
H508        H  0.61264081  0.90447787  0.35201617     0.44410
H509        H  0.49990803  0.84552536  0.35119251     0.37940
H510        H  0.50855369  0.96173074  0.30712562     0.34420
H511        H  0.66613708  0.90083673  0.27328242     0.26210
H512        H  0.55733107  0.00521455  0.37650536     0.32150
H513        H  0.46129322  0.93977302  0.39753622     0.38060
H514        H  0.63441263  0.83700280  0.24970989     0.32510
H515        H  0.54104573  0.80959348  0.23102272     0.31390
H516        H  0.46057361  0.83213256  0.29422378     0.33070
H517        H  0.42250762  0.89624214  0.34980683     0.32040
H518        H  0.64175075  0.85303811  0.33452723     0.36040
H519        H  0.60764116  0.83037794  0.37942929     0.28770
H520        H  0.50811804  0.96085823  0.20339913     0.33010
H521        H  0.43727043  0.95374256  0.33791391     0.35860
H522        H  0.56651582  0.80268970  0.25696906     0.28470
H523        H  0.61938373  0.86169765  0.39240052     0.41340
H524        H  0.62268051  0.97564709  0.31380332     0.31390
H525        H  0.65334124  0.92610920  0.29700910     0.39010
H526        H  0.43664966  0.86760275  0.33243438     0.30860
H527        H  0.52486422  0.99487466  0.36433983     0.30920
H528        H  0.48500212  0.96401404  0.23294090     0.31190
Zr529      Zr  0.64981665  0.26761244  0.38071064     2.17510
O530        O  0.67878368  0.30008491  0.34293991    -0.51170
O531        O  0.64473654  0.22589439  0.34073983    -0.74370
O532        O  0.70477499  0.25642173  0.38229920    -0.81160
O533        O  0.57153081  0.31148282  0.36390375    -0.82900
O534        O  0.71949659  0.23587611  0.43173620    -0.78530
O535        O  0.61795601  0.30073691  0.34141265    -0.90160
O536        O  0.63903593  0.18367773  0.37214238    -0.76120
O537        O  0.65457969  0.22051617  0.41125325    -0.85610
O538        O  0.60011796  0.24597382  0.38379836    -0.85300
O539        O  0.67118158  0.27809475  0.43510763    -0.72060
O540        O  0.62206318  0.30465771  0.41180476    -0.84200
Zr541      Zr  0.59642903  0.24737587  0.49872515     2.26420
Zr542      Zr  0.67451490  0.23034998  0.46554310     2.06270
Zr543      Zr  0.57184544  0.28279431  0.41413586     2.10050
Zr544      Zr  0.60466875  0.19947883  0.41460923     1.78760
O545        O  0.55546469  0.33602622  0.41863543    -0.93000
O546        O  0.62028534  0.14721286  0.42740536    -0.40810
O547        O  0.57612066  0.23601407  0.44475204    -0.77440
O548        O  0.62431309  0.20909745  0.46843791    -0.96130
O549        O  0.64691525  0.26769117  0.49680087    -0.89430
O550        O  0.59310766  0.29361400  0.46742782    -0.92270
C551        C  0.64139391  0.19682403  0.34426828     1.01480
C552        C  0.59100667  0.31393089  0.34064596     1.14410
C553        C  0.72497399  0.24585897  0.40262657     1.05190
O554        O  0.70089034  0.18156880  0.45955713    -0.94430
O555        O  0.66730981  0.19468240  0.01392684    -0.90170
O556        O  0.62509023  0.21167872  0.04106443    -0.83320
C557        C  0.64799183  0.19359360  0.03793966     1.11830
O558        O  0.68083726  0.34905906  0.44286441    -0.96400
Zr559      Zr  0.64272848  0.31442616  0.46627772     1.88940
O560        O  0.58599975  0.28055185  0.04241291    -0.73050
O561        O  0.71266087  0.25107327  0.50327210    -0.52310
O562        O  0.68514132  0.31972796  0.50496374    -0.96990
O563        O  0.62259589  0.36557139  0.45570886    -0.54210
O564        O  0.60746530  0.32429713  0.02222998    -0.73570
C565        C  0.59102433  0.30965377  0.04327035     0.98770
O566        O  0.56102764  0.22978706  0.54099598    -0.62390
O567        O  0.53183065  0.25854869  0.38105094    -0.57190
O568        O  0.54648724  0.24092524  0.47695835    -0.93870
O569        O  0.52721721  0.27765338  0.44737313    -0.92300
O570        O  0.56650882  0.19010514  0.37177321    -0.92660
O571        O  0.56476397  0.16630144  0.43679367    -0.91440
C572        C  0.53156255  0.26560427  0.47545262     1.17620
H573        H  0.59158270  0.24283207  0.36207597     0.33560
H574        H  0.62362078  0.18904166  0.47833448     0.44410
H575        H  0.58009335  0.30868168  0.47705564     0.37940
H576        H  0.69126355  0.28711508  0.43291361     0.34420
H577        H  0.61639244  0.13549205  0.40691848     0.26210
H578        H  0.72831392  0.23475937  0.50506133     0.32150
H579        H  0.67956161  0.33740631  0.51899040     0.38060
H580        H  0.56188587  0.16793400  0.37294923     0.32510
H581        H  0.53962644  0.25796147  0.35813839     0.31390
H582        H  0.53459060  0.33578274  0.42791318     0.33070
H583        H  0.62955382  0.37813980  0.47461300     0.32040
H584        H  0.56410421  0.17122632  0.46062597     0.36040
H585        H  0.56011714  0.20724680  0.53858832     0.28770
H586        H  0.69040126  0.28586465  0.32864656     0.33010
H587        H  0.68515613  0.36437898  0.46025496     0.35860
H588        H  0.53154020  0.23691476  0.38832925     0.28470
H589        H  0.57152646  0.23349770  0.56220100     0.41340
H590        H  0.69587358  0.17470737  0.43690999     0.31390
H591        H  0.64288178  0.14815051  0.42921206     0.39010
H592        H  0.60019195  0.36362076  0.45883711     0.30860
H593        H  0.72287657  0.26761025  0.49066243     0.30920
H594        H  0.69445393  0.31035209  0.35673537     0.31190
Zr595      Zr  0.37259180  0.30333328  0.38294557     2.17510
O596        O  0.34645852  0.26825114  0.34551831    -0.51170
O597        O  0.37725992  0.34493819  0.34262954    -0.74370
O598        O  0.31725001  0.31308605  0.38075037    -0.81160
O599        O  0.45335391  0.26332474  0.36982659    -0.82900
O600        O  0.30029756  0.33139450  0.43028546    -0.78530
O601        O  0.40753008  0.27270169  0.34497432    -0.90160
O602        O  0.38102970  0.38798493  0.37311420    -0.76120
O603        O  0.36418423  0.34987989  0.41328901    -0.85610
O604        O  0.42087315  0.32754394  0.38813525    -0.85300
O605        O  0.35036078  0.29081365  0.43631769    -0.72060
O606        O  0.40221450  0.26830676  0.41507072    -0.84200
Zr607      Zr  0.41970424  0.32457732  0.50220471     2.26420
Zr608      Zr  0.34319526  0.33809258  0.46672675     2.06270
Zr609      Zr  0.45071250  0.29340324  0.42042857     2.10050
Zr610      Zr  0.41285715  0.37357206  0.41841461     1.78760
O611        O  0.47872984  0.24610073  0.43037815    -0.93000
O612        O  0.39290020  0.42442636  0.43056823    -0.40810
O613        O  0.44244302  0.33913178  0.45063461    -0.77440
O614        O  0.39209080  0.36180294  0.47098326    -0.96130
O615        O  0.37093831  0.30134314  0.49860959    -0.89430
O616        O  0.42918933  0.27893436  0.47173989    -0.92270
C617        C  0.37961095  0.37416570  0.34557275     1.01480
C618        C  0.43492286  0.26052998  0.34531311     1.14410
C619        C  0.29611959  0.32240597  0.40059611     1.05190
O620        O  0.31191487  0.38404543  0.46235114    -0.94430
O621        O  0.35228327  0.37213023  0.01378013    -0.90170
O622        O  0.39900346  0.36055245  0.03497752    -0.83320
C623        C  0.37387327  0.37556947  0.03517173     1.11830
O624        O  0.34518007  0.21955511  0.44188852    -0.96400
Zr625      Zr  0.38037101  0.25558463  0.46802717     1.88940
O626        O  0.43770618  0.28558144  0.03473079    -0.73050
O627        O  0.30585734  0.31456906  0.50343234    -0.52310
O628        O  0.33817399  0.24679308  0.50617557    -0.96990
O629        O  0.40198775  0.20509316  0.45752144    -0.54210
O630        O  0.41257985  0.24322054  0.01653088    -0.73570
C631        C  0.43068545  0.25689716  0.03654363     0.98770
O632        O  0.44762140  0.36681590  0.52786634    -0.62390
O633        O  0.48845497  0.31804797  0.38478007    -0.57190
O634        O  0.47115709  0.31453957  0.51122503    -0.93870
O635        O  0.48684631  0.31863505  0.45812367    -0.92300
O636        O  0.45393593  0.38310625  0.37892188    -0.92660
O637        O  0.44902890  0.41054326  0.44103583    -0.91440
C638        C  0.49159216  0.31735150  0.48946369     1.17620
H639        H  0.43006708  0.33108270  0.36680571     0.33560
H640        H  0.39200147  0.38127761  0.48215467     0.44410
H641        H  0.44419280  0.26585058  0.48206477     0.37940
H642        H  0.33079893  0.28094356  0.43304141     0.34420
H643        H  0.39688167  0.43664001  0.41041193     0.26210
H644        H  0.28937084  0.33001368  0.50538737     0.32150
H645        H  0.34449095  0.22874447  0.51932621     0.38060
H646        H  0.45602001  0.40565137  0.37769359     0.32510
H647        H  0.50786316  0.30732584  0.38918033     0.31390
H648        H  0.46412446  0.22955489  0.42475720     0.33070
H649        H  0.39484800  0.19218759  0.47610129     0.32040
H650        H  0.44929326  0.40628741  0.46502641     0.36040
H651        H  0.46628279  0.37028676  0.51453119     0.28770
H652        H  0.33518218  0.28143846  0.32976226     0.33010
H653        H  0.33917066  0.20487531  0.45936681     0.35860
H654        H  0.48315094  0.31246790  0.36181372     0.28470
H655        H  0.43510932  0.38507998  0.52277830     0.41340
H656        H  0.31877879  0.39399204  0.44166907     0.31390
H657        H  0.37037907  0.42180884  0.43104660     0.39010
H658        H  0.42423101  0.20757142  0.46145172     0.30860
H659        H  0.29663337  0.29785624  0.49024275     0.30920
H660        H  0.33040354  0.25820399  0.35897643     0.31190
Zr661      Zr  0.52780142  0.14926696  0.24339547     2.17510
O662        O  0.48842913  0.12181324  0.27416611    -0.51170
O663        O  0.56631099  0.15087877  0.28723969    -0.74370
O664        O  0.53723074  0.09369360  0.24345230    -0.81160
O665        O  0.49300705  0.23090041  0.26249167    -0.82900
O666        O  0.55836545  0.07897417  0.19441544    -0.78530
O667        O  0.49636421  0.18228334  0.28243007    -0.90160
O668        O  0.60994450  0.15212342  0.25816831    -0.76120
O669        O  0.57633370  0.14190395  0.21665304    -0.85610
O670        O  0.55263443  0.19765014  0.24348697    -0.85300
O671        O  0.51902470  0.13075183  0.18753534    -0.72060
O672        O  0.49603287  0.18123792  0.20997371    -0.84200
Zr673      Zr  0.56152830  0.20397633  0.12913350     2.26420
Zr674      Zr  0.56829483  0.12396471  0.16134981     2.06270
Zr675      Zr  0.52110239  0.22989847  0.21050800     2.10050
Zr676      Zr  0.60111120  0.19028438  0.21695646     1.78760
O677        O  0.46857683  0.24751690  0.20079932    -0.93000
O678        O  0.65342730  0.17170321  0.21053991    -0.40810
O679        O  0.56974038  0.22288296  0.18457632    -0.77440
O680        O  0.59416082  0.17219072  0.16194330    -0.96130
O681        O  0.53638903  0.15564006  0.12766126    -0.89430
O682        O  0.51266182  0.21197425  0.15608813    -0.92270
C683        C  0.59564591  0.15184378  0.28540774     1.01480
C684        C  0.48680261  0.21060545  0.28441722     1.14410
C685        C  0.54760912  0.07336270  0.22320551     1.05190
O686        O  0.61424233  0.09302948  0.16802739    -0.94430
O687        O  0.60338838  0.13012069  0.11395111    -0.90170
O688        O  0.58750639  0.17362026  0.08838662    -0.83320
C689        C  0.60489538  0.15014226  0.09058682     1.11830
O690        O  0.44936292  0.12694853  0.17178272    -0.96400
Zr691      Zr  0.48807936  0.16377370  0.15404274     1.88940
O692        O  0.52142316  0.21606453  0.08845060    -0.73050
O693        O  0.54564245  0.08841703  0.12203985    -0.52310
O694        O  0.48359047  0.12557790  0.11054992    -0.96990
O695        O  0.43677497  0.18478351  0.16108379    -0.54210
O696        O  0.47616020  0.19604100  0.10620061    -0.73570
C697        C  0.49205859  0.21308691  0.08673562     0.98770
O698        O  0.60842720  0.22985116  0.11133811    -0.62390
O699        O  0.53920575  0.27375581  0.24209545    -0.57190
O700        O  0.56237503  0.25688987  0.11608982    -0.93870
O701        O  0.55435264  0.25456750  0.16885725    -0.92300
O702        O  0.60789771  0.22735968  0.26141551    -0.92660
O703        O  0.64019608  0.22675257  0.19945917    -0.91440
C704        C  0.54830430  0.26691459  0.14079933     1.17620
H705        H  0.55458756  0.20573890  0.26556187     0.33560
H706        H  0.61434387  0.17101017  0.15234712     0.44410
H707        H  0.50000583  0.22731530  0.14600759     0.37940
H708        H  0.50851830  0.11130596  0.18856564     0.34420
H709        H  0.66280547  0.17346709  0.23271247     0.26210
H710        H  0.56039626  0.07124445  0.12090706     0.32150
H711        H  0.46733330  0.13350085  0.09579237     0.38060
H712        H  0.63002035  0.23232460  0.26177122     0.32510
H713        H  0.53761273  0.26769975  0.26557547     0.31390
H714        H  0.45529201  0.23201980  0.21145615     0.33070
H715        H  0.42537527  0.17845321  0.14107881     0.32040
H716        H  0.64365790  0.22227059  0.17582272     0.36040
H717        H  0.61484471  0.24279913  0.13017756     0.28770
H718        H  0.49962639  0.10960085  0.29087135     0.33010
H719        H  0.43725400  0.12198196  0.15182273     0.35860
H720        H  0.56155602  0.27406601  0.23797935     0.28470
H721        H  0.62429946  0.21374791  0.11079904     0.41340
H722        H  0.62265858  0.09922495  0.18971094     0.31390
H723        H  0.65131042  0.14939875  0.20681242     0.39010
H724        H  0.43932681  0.20718371  0.15850220     0.30860
H725        H  0.52763382  0.07977570  0.13361742     0.30920
H726        H  0.47998925  0.10657759  0.25851665     0.31190
Zr727      Zr  0.49222087  0.42301728  0.24434495     2.17510
O728        O  0.52953566  0.45258357  0.27583832    -0.51170
O729        O  0.45394806  0.42070103  0.28827532    -0.74370
O730        O  0.48042092  0.47782220  0.24360391    -0.81160
O731        O  0.53038662  0.34288444  0.26306686    -0.82900
O732        O  0.46054040  0.49164203  0.19358304    -0.78530
O733        O  0.52722361  0.39190690  0.28162807    -0.90160
O734        O  0.41021571  0.42002547  0.25924760    -0.76120
O735        O  0.44416616  0.43005191  0.21626620    -0.85610
O736        O  0.46676536  0.37493813  0.24610245    -0.85300
O737        O  0.50179009  0.44053006  0.18824228    -0.72060
O738        O  0.52441585  0.39017619  0.21280146    -0.84200
Zr739      Zr  0.46049122  0.36516154  0.13098675     2.26420
Zr740      Zr  0.45304721  0.44626326  0.16050208     2.06270
Zr741      Zr  0.49844541  0.34206674  0.21437919     2.10050
Zr742      Zr  0.41884423  0.38210312  0.21789001     1.78760
O743        O  0.54619316  0.31792685  0.19720163    -0.93000
O744        O  0.36692536  0.40143797  0.21052400    -0.40810
O745        O  0.45052977  0.34919979  0.18709374    -0.77440
O746        O  0.42733365  0.39798135  0.16221451    -0.96130
O747        O  0.48558262  0.41359256  0.12873196    -0.89430
O748        O  0.50855834  0.35842644  0.15941668    -0.92270
C749        C  0.42460535  0.41985348  0.28646234     1.01480
C750        C  0.53775052  0.36393926  0.28349893     1.14410
C751        C  0.46988569  0.49760255  0.22286261     1.05190
O752        O  0.40693762  0.47741020  0.16369983    -0.94430
O753        O  0.41872849  0.43972551  0.11243124    -0.90170
O754        O  0.43174881  0.39365962  0.09067170    -0.83320
C755        C  0.41601487  0.41831249  0.09073286     1.11830
O756        O  0.57176745  0.44358166  0.17473132    -0.96400
Zr757      Zr  0.53334733  0.40656076  0.15671962     1.88940
O758        O  0.50127347  0.35494092  0.09038594    -0.73050
O759        O  0.47758632  0.48095955  0.12157630    -0.52310
O760        O  0.53913179  0.44427894  0.11281815    -0.96990
O761        O  0.58425663  0.38521247  0.16581446    -0.54210
O762        O  0.54634745  0.37397740  0.10979169    -0.73570
C763        C  0.53066805  0.35778633  0.08937858     0.98770
O764        O  0.41652677  0.33640516  0.10944488    -0.62390
O765        O  0.48316948  0.29810658  0.24759822    -0.57190
O766        O  0.46395199  0.31081003  0.12605691    -0.93870
O767        O  0.46205572  0.31637021  0.17906390    -0.92300
O768        O  0.41175097  0.34389922  0.26124972    -0.92660
O769        O  0.37890980  0.34705706  0.19936901    -0.91440
C770        C  0.47215229  0.30195780  0.15434808     1.17620
H771        H  0.46459006  0.36716602  0.26830661     0.33560
H772        H  0.40733891  0.39893559  0.15209788     0.44410
H773        H  0.52101238  0.34288707  0.14944207     0.37940
H774        H  0.51207547  0.46010882  0.18901381     0.34420
H775        H  0.35735776  0.40010699  0.23262316     0.26210
H776        H  0.46248760  0.49759526  0.11829607     0.32150
H777        H  0.55585424  0.43623884  0.09881479     0.38060
H778        H  0.38966233  0.33877553  0.26111385     0.32510
H779        H  0.48420197  0.30523112  0.27075365     0.31390
H780        H  0.56250399  0.32960316  0.20860356     0.33070
H781        H  0.59618648  0.39099716  0.14598670     0.32040
H782        H  0.38077711  0.34686732  0.17503039     0.36040
H783        H  0.40967431  0.32294634  0.12770115     0.28770
H784        H  0.51742794  0.46435494  0.29210979     0.33010
H785        H  0.58477869  0.44765214  0.15521475     0.35860
H786        H  0.46096278  0.29579595  0.24330195     0.28470
H787        H  0.39946901  0.35117220  0.10743778     0.41340
H788        H  0.39765191  0.47192217  0.18518790     0.31390
H789        H  0.36946436  0.42365493  0.20645689     0.39010
H790        H  0.58153194  0.36279029  0.16379593     0.30860
H791        H  0.49440634  0.49061150  0.13426282     0.30920
H792        H  0.53761059  0.46809263  0.26025258     0.31190
Zr793      Zr  0.14906212  0.29954554  0.36835121     2.17510
O794        O  0.17837515  0.26480534  0.40336370    -0.51170
O795        O  0.14528273  0.33944003  0.41064173    -0.74370
O796        O  0.20400788  0.31112998  0.36752738    -0.81160
O797        O  0.07057488  0.25582467  0.38437603    -0.82900
O798        O  0.21857762  0.33283533  0.31861553    -0.78530
O799        O  0.11775835  0.26459664  0.40611084    -0.90160
O800        O  0.14263067  0.38240727  0.38030357    -0.76120
O801        O  0.15468631  0.34765000  0.33983303    -0.85610
O802        O  0.09985719  0.32279450  0.36771130    -0.85300
O803        O  0.16942261  0.29087968  0.31316959    -0.72060
O804        O  0.11942226  0.26443010  0.33624044    -0.84200
Zr805      Zr  0.09477073  0.32696881  0.25334611     2.26420
Zr806      Zr  0.17368449  0.33975142  0.28484214     2.06270
Zr807      Zr  0.06983875  0.28808302  0.33623884     2.10050
Zr808      Zr  0.10548632  0.37044028  0.33906359     1.78760
O809        O  0.04610161  0.23853276  0.32581950    -0.93000
O810        O  0.12126831  0.42337390  0.33019276    -0.40810
O811        O  0.07501293  0.33615678  0.30800097    -0.77440
O812        O  0.12438460  0.36304391  0.28455706    -0.96130
O813        O  0.14431616  0.30453399  0.25262872    -0.89430
O814        O  0.09070625  0.27972961  0.28264401    -0.92270
C815        C  0.14351660  0.36871119  0.40792608     1.01480
C816        C  0.09067353  0.25166244  0.40681716     1.14410
C817        C  0.22410519  0.32235370  0.34752703     1.05190
O818        O  0.20283837  0.38696493  0.29092211    -0.94430
O819        O  0.16641441  0.37440676  0.23656846    -0.90170
O820        O  0.11758005  0.36630991  0.21923156    -0.83320
C821        C  0.14328297  0.38037156  0.21763856     1.11830
O822        O  0.17894827  0.22179449  0.30037328    -0.96400
Zr823      Zr  0.13910798  0.25657034  0.28093232     1.88940
O824        O  0.08669034  0.28462956  0.21439697    -0.73050
O825        O  0.21019620  0.31801996  0.24604905    -0.52310
O826        O  0.17745451  0.25220975  0.23757636    -0.96990
O827        O  0.12032093  0.20481235  0.29105840    -0.54210
O828        O  0.10781468  0.24045253  0.23362655    -0.73570
C829        C  0.09030880  0.25534369  0.21374118     0.98770
O830        O  0.05821137  0.34764258  0.21391145    -0.62390
O831        O  0.03080287  0.31081383  0.37154180    -0.57190
O832        O  0.04481631  0.33315552  0.27458239    -0.93870
O833        O  0.02561697  0.29520275  0.30234462    -0.92300
O834        O  0.06852493  0.37866947  0.38326396    -0.92660
O835        O  0.06686961  0.40566193  0.31797468    -0.91440
C836        C  0.02989125  0.30844771  0.27484637     1.17620
H837        H  0.09181543  0.32515679  0.38974524     0.33560
H838        H  0.12432385  0.38348644  0.27558481     0.44410
H839        H  0.07668556  0.26574179  0.27294432     0.37940
H840        H  0.18938236  0.28151221  0.31480819     0.34420
H841        H  0.11859716  0.43350528  0.35184191     0.26210
H842        H  0.22663184  0.33359038  0.24441617     0.32150
H843        H  0.17067070  0.23457309  0.22407847     0.38060
H844        H  0.06304431  0.40063325  0.38205311     0.32510
H845        H  0.03926361  0.31033922  0.39420245     0.31390
H846        H  0.06219584  0.22324116  0.33070868     0.33070
H847        H  0.12680242  0.19282148  0.27155765     0.32040
H848        H  0.06573710  0.40120538  0.29405128     0.36040
H849        H  0.05912374  0.37016898  0.21643777     0.28770
H850        H  0.19002700  0.27809615  0.41868145     0.33010
H851        H  0.18274195  0.20745062  0.28192423     0.35860
H852        H  0.03047306  0.33275788  0.36542046     0.28470
H853        H  0.06695443  0.34328862  0.19200661     0.41340
H854        H  0.19566558  0.39576192  0.31204688     0.31390
H855        H  0.14372324  0.42237893  0.32699632     0.39010
H856        H  0.09779988  0.20634650  0.28882200     0.30860
H857        H  0.21972720  0.30076043  0.25813854     0.30920
H858        H  0.19399716  0.25558441  0.38873502     0.31190
Zr859      Zr  0.87340196  0.27025271  0.36725623     2.17510
O860        O  0.84739085  0.30647037  0.40335592    -0.51170
O861        O  0.87647375  0.22886232  0.40766129    -0.74370
O862        O  0.81811790  0.25971045  0.36995456    -0.81160
O863        O  0.95455588  0.30882834  0.38128052    -0.82900
O864        O  0.80089481  0.24157511  0.32036211    -0.78530
O865        O  0.90873760  0.29955796  0.40612333    -0.90160
O866        O  0.88436602  0.18500361  0.37910175    -0.76120
O867        O  0.86457584  0.22373388  0.33702407    -0.85610
O868        O  0.92180669  0.24635861  0.36164935    -0.85300
O869        O  0.85063961  0.28262211  0.31412481    -0.72060
O870        O  0.90295968  0.30555497  0.33537103    -0.84200
Zr871      Zr  0.91889859  0.24946857  0.24822821     2.26420
Zr872      Zr  0.84322323  0.23533822  0.28355211     2.06270
Zr873      Zr  0.95149040  0.28069798  0.32915168     2.10050
Zr874      Zr  0.91316155  0.20021499  0.33178480     1.78760
O875        O  0.97734699  0.32897520  0.31746478    -0.93000
O876        O  0.89129810  0.15033703  0.31851216    -0.40810
O877        O  0.94247474  0.23485250  0.29945846    -0.77440
O878        O  0.89189427  0.21171645  0.27926628    -0.96130
O879        O  0.87037877  0.27271343  0.25222205    -0.89430
O880        O  0.92911568  0.29518603  0.27832889    -0.92270
C881        C  0.87959651  0.19965240  0.40575969     1.01480
C882        C  0.93631186  0.31136847  0.40598562     1.14410
C883        C  0.79694448  0.25024056  0.35014171     1.05190
O884        O  0.81196002  0.18927410  0.28753205    -0.94430
O885        O  0.85084090  0.20238991  0.23379058    -0.90170
O886        O  0.88919667  0.22563919  0.20569289    -0.83320
C887        C  0.86932480  0.20439071  0.20892190     1.11830
O888        O  0.84550547  0.35393577  0.31003378    -0.96400
Zr889      Zr  0.88036005  0.31839585  0.28282633     1.88940
O890        O  0.92744156  0.29170336  0.20917405    -0.73050
O891        O  0.80537464  0.25859197  0.24723592    -0.52310
O892        O  0.83793977  0.32795143  0.24511592    -0.96990
O893        O  0.90219344  0.36880488  0.29353901    -0.54210
O894        O  0.90693553  0.33443775  0.23245393    -0.73570
C895        C  0.92273861  0.32083992  0.21009128     0.98770
O896        O  0.94594927  0.20519692  0.22581388    -0.62390
O897        O  0.99365567  0.26020800  0.36183824    -0.57190
O898        O  0.96940551  0.26045118  0.23745348    -0.93870
O899        O  0.98590090  0.25434767  0.28996459    -0.92300
O900        O  0.95406455  0.18885784  0.37089557    -0.92660
O901        O  0.95048507  0.16413742  0.30992391    -0.91440
C902        C  0.99020282  0.25701744  0.25859274     1.17620
H903        H  0.93125235  0.24271628  0.38285656     0.33560
H904        H  0.89170973  0.19227745  0.26803236     0.44410
H905        H  0.94395439  0.30822156  0.26765918     0.37940
H906        H  0.83106617  0.29235127  0.31762236     0.34420
H907        H  0.89677591  0.13705481  0.33744052     0.26210
H908        H  0.78870167  0.24325165  0.24590514     0.32150
H909        H  0.84418355  0.34630303  0.23241277     0.38060
H910        H  0.95094484  0.16714092  0.37708299     0.32510
H911        H  0.98697299  0.26119646  0.38514073     0.31390
H912        H  0.96441302  0.34482579  0.32792710     0.33070
H913        H  0.89503048  0.38179085  0.27503151     0.32040
H914        H  0.94629124  0.16341914  0.28593479     0.36040
H915        H  0.96356872  0.20160969  0.24070196     0.28770
H916        H  0.83629221  0.29374124  0.41968166     0.33010
H917        H  0.83944355  0.36898486  0.29294505     0.35860
H918        H  0.99350359  0.23803389  0.35681300     0.28470
H919        H  0.93244719  0.18747385  0.23007470     0.41340
H920        H  0.81786579  0.17989255  0.30886016     0.31390
H921        H  0.86888792  0.15322588  0.32044925     0.39010
H922        H  0.92441459  0.36630201  0.28955608     0.30860
H923        H  0.79658898  0.27557335  0.26032655     0.30920
H924        H  0.83117702  0.31586234  0.38956698     0.31190
Zr925      Zr  0.99001402  0.14484161  0.00625350     2.17510
O926        O  0.02043900  0.11400391  0.96837713    -0.51170
O927        O  0.94852330  0.15043535  0.46688368    -0.74370
O928        O  0.97623489  0.09052584  0.00878454    -0.81160
O929        O  0.03815669  0.22061129  0.48885531    -0.82900
O930        O  0.95532355  0.07721693  0.05849684    -0.78530
O931        O  0.02466391  0.17465814  0.46694679    -0.90160
O932        O  0.90609554  0.16252730  0.49611802    -0.76120
O933        O  0.94297459  0.14259543  0.03723824    -0.85610
O934        O  0.97090674  0.19542288  0.00893357    -0.85300
O935        O  0.99960143  0.12338492  0.06082296    -0.72060
O936        O  0.02888296  0.17089484  0.03650307    -0.84200
Zr937      Zr  0.97406992  0.20030073  0.12397962     2.26420
Zr938      Zr  0.95208861  0.12290225  0.09191151     2.06270
Zr939      Zr  0.00949514  0.22207100  0.03859968     2.10050
Zr940      Zr  0.92462826  0.19346114  0.04024922     1.78760
O941        O  0.06290568  0.23770443  0.04350457    -0.93000
O942        O  0.87289267  0.17800947  0.05563039    -0.40810
O943        O  0.96304221  0.22037055  0.06977430    -0.77440
O944        O  0.93393228  0.17431461  0.09424914    -0.96130
O945        O  0.99147149  0.14871916  0.12230788    -0.89430
O946        O  0.01989802  0.20063246  0.09199204    -0.92270
C947        C  0.91974589  0.15617445  0.46923701     1.01480
C948        C  0.03937029  0.20087357  0.46577760     1.14410
C949        C  0.96490075  0.07099710  0.02938299     1.05190
O950        O  0.90266557  0.09735354  0.08738010    -0.94430
O951        O  0.91899790  0.13342774  0.14064032    -0.90170
O952        O  0.93406406  0.18008572  0.15965909    -0.83320
C953        C  0.91659054  0.15644034  0.16056803     1.11830
O954        O  0.06992971  0.11011725  0.06680726    -0.96400
Zr955      Zr  0.03798101  0.14998990  0.09099440     1.88940
O956        O  0.01966742  0.20474634  0.16011838    -0.73050
O957        O  0.97168286  0.08524302  0.13089179    -0.52310
O958        O  0.04226078  0.10716558  0.12929798    -0.96990
O959        O  0.08967208  0.16812450  0.07920670    -0.54210
O960        O  0.05793622  0.17447071  0.14072680    -0.73570
C961        C  0.04742009  0.19452032  0.16086911     0.98770
O962        O  0.96061092  0.23962647  0.16383898    -0.62390
O963        O  0.98596769  0.26216640  0.00511171    -0.57190
O964        O  0.97029333  0.25064618  0.10251257    -0.93870
O965        O  0.00618176  0.26764593  0.07031518    -0.92300
O966        O  0.91476254  0.23194009  0.99794334    -0.92660
O967        O  0.89397646  0.23566078  0.06142567    -0.91440
C968        C  0.99572025  0.26407131  0.09919624     1.17620
H969        H  0.96793560  0.20364424  0.48747984     0.33560
H970        H  0.91402546  0.17662080  0.10411289     0.44410
H971        H  0.03583403  0.21265861  0.10158193     0.37940
H972        H  0.00755110  0.10286234  0.05885507     0.34420
H973        H  0.86002589  0.18344480  0.03636051     0.26210
H974        H  0.95440640  0.07087020  0.13426155     0.32150
H975        H  0.06094626  0.11149266  0.14235425     0.38060
H976        H  0.89218286  0.23285525  0.99594421     0.32510
H977        H  0.98545762  0.25437555  0.98219620     0.31390
H978        H  0.06328907  0.26006857  0.04001219     0.33070
H979        H  0.10239887  0.16059715  0.09775220     0.32040
H980        H  0.89790297  0.23560395  0.08549555     0.36040
H981        H  0.93924100  0.23578777  0.17070990     0.28770
H982        H  0.00585991  0.10280278  0.45505099     0.33010
H983        H  0.08605304  0.10577321  0.08335843     0.35860
H984        H  0.96440723  0.26261900  0.51235501     0.28470
H985        H  0.97349096  0.23495615  0.18320911     0.41340
H986        H  0.89579296  0.10153811  0.06452793     0.31390
H987        H  0.87337793  0.15534449  0.05566057     0.39010
H988        H  0.08874550  0.19057301  0.08244381     0.30860
H989        H  0.98691231  0.07332773  0.11817901     0.30920
H990        H  0.03014655  0.09801327  0.98221546     0.31190
Zr991      Zr  0.03056859  0.42322330  0.00670653     2.17510
O992        O  0.99344045  0.45065228  0.97280982    -0.51170
O993        O  0.07064781  0.41857704  0.46470468    -0.74370
O994        O  0.04181240  0.47830880  0.00478436    -0.81160
O995        O  0.99309023  0.34149886  0.49127281    -0.82900
O996        O  0.05926161  0.49467139  0.05497172    -0.78530
O997        O  0.99961227  0.38876758  0.46856562    -0.90160
O998        O  0.11459869  0.41627701  0.49380148    -0.76120
O999        O  0.07746947  0.43220148  0.03645957    -0.85610
O1000       O  0.05639428  0.37559815  0.00968184    -0.85300
O1001       O  0.01860123  0.44355260  0.06103709    -0.72060
O1002       O  0.99720435  0.39140881  0.03841109    -0.84200
Zr1003     Zr  0.05623082  0.37349381  0.12330997     2.26420
Zr1004     Zr  0.06627288  0.45143602  0.09073817     2.06270
Zr1005     Zr  0.02375728  0.34357697  0.04134198     2.10050
Zr1006     Zr  0.10288507  0.38429761  0.03917169     1.78760
O1007       O  0.97625034  0.31588069  0.05144588    -0.93000
O1008       O  0.15402143  0.40537627  0.04755066    -0.40810
O1009       O  0.06992584  0.35258491  0.07073149    -0.77440
O1010       O  0.09190819  0.40360851  0.09274425    -0.96130
O1011       O  0.03121149  0.42134484  0.12209443    -0.89430
O1012       O  0.01020367  0.36298966  0.09379944    -0.92270
C1013       C  0.09994128  0.41639522  0.46669256     1.01480
C1014       C  0.98851998  0.36091084  0.46790342     1.14410
C1015       C  0.05102896  0.49914458  0.02507588     1.05190
O1016       O  0.11197438  0.48327302  0.08734002    -0.94430
O1017       O  0.09922555  0.44476788  0.14058419    -0.90170
O1018       O  0.08148239  0.40186982  0.16585986    -0.83320
C1019       C  0.09957068  0.42480904  0.16421457     1.11830
O1020       O  0.94808882  0.44739381  0.06983152    -0.96400
Zr1021     Zr  0.98508029  0.41111777  0.09237921     1.88940
O1022       O  0.01478086  0.36364098  0.16312919    -0.73050
O1023       O  0.04176651  0.48799734  0.12747035    -0.52310
O1024       O  0.97749673  0.44991732  0.13473367    -0.96990
O1025       O  0.93414063  0.39046605  0.08173516    -0.54210
O1026       O  0.97024564  0.38013383  0.14015871    -0.73570
C1027       C  0.98529400  0.36539918  0.16236318     0.98770
O1028       O  0.10133113  0.34692550  0.14508839    -0.62390
O1029       O  0.04732142  0.30676875  0.00391606    -0.57190
O1030       O  0.04984544  0.32145515  0.13120141    -0.93870
O1031       O  0.04958788  0.30626653  0.07754437    -0.92300
O1032       O  0.11149296  0.34289041  0.99986282    -0.92660
O1033       O  0.14199224  0.35027122  0.06151823    -0.91440
C1034       C  0.05061075  0.30130406  0.10893625     1.17620
H1035       H  0.05971721  0.36707940  0.98801471     0.33560
H1036       H  0.11143916  0.40460249  0.10383580     0.44410
H1037       H  0.99821836  0.34699766  0.10395644     0.37940
H1038       H  0.00829666  0.46296920  0.05846128     0.34420
H1039       H  0.16507198  0.40136211  0.02666996     0.26210
H1040       H  0.05655672  0.50513873  0.12908150     0.32150
H1041       H  0.95996954  0.44237034  0.14793492     0.38060
H1042       H  0.13385633  0.33920395  0.99989827     0.32510
H1043       H  0.03354683  0.28890606  0.00376540     0.31390
H1044       H  0.95979050  0.33068352  0.04621462     0.33070
H1045       H  0.92177508  0.39651290  0.10113413     0.32040
H1046       H  0.14185900  0.35411490  0.08557587     0.36040
H1047       H  0.10663889  0.33119047  0.12848956     0.28770
H1048       H  0.00594702  0.46141063  0.45611694     0.33010
H1049       H  0.93507603  0.45363243  0.08864878     0.35860
H1050       H  0.04604936  0.31528987  0.48218475     0.28470
H1051       H  0.11840319  0.36174644  0.14346786     0.41340
H1052       H  0.12248918  0.47629861  0.06706764     0.31390
H1053       H  0.15107167  0.42784703  0.04792132     0.39010
H1054       H  0.93649589  0.36802139  0.08401563     0.30860
H1055       H  0.02450326  0.49640363  0.11445253     0.30920
H1056       H  0.98480985  0.46664788  0.98738487     0.31190
C1057       C  0.01723230  0.26516420  0.12700387    -0.16270
C1058       C  0.04668624  0.27053022  0.12006105    -0.31440
H1059       H  0.00779692  0.27528955  0.14925945     0.12750
H1060       H  0.05853537  0.25509762  0.10365869     0.13330
C1061       C  0.87036003  0.18065477  0.18278483    -0.16270
C1062       C  0.89139785  0.15786541  0.18525355    -0.31440
H1063       H  0.86611724  0.18957613  0.15814652     0.12750
H1064       H  0.89728276  0.14959610  0.20973127     0.13330
C1065       C  0.90209376  0.15933181  0.43878046    -0.16270
C1066       C  0.88143167  0.18220049  0.43649352    -0.31440
H1067       H  0.91211639  0.14967149  0.41659430     0.12750
H1068       H  0.87308014  0.19337140  0.45865203     0.13330
C1069       C  0.93796399  0.34035111  0.18495685    -0.16270
C1070       C  0.96797290  0.34774534  0.18776340    -0.31440
H1071       H  0.92444601  0.34893834  0.16444794     0.12750
H1072       H  0.98080347  0.33872721  0.20858266     0.13330
C1073       C  0.94890301  0.32713044  0.43698192    -0.16270
C1074       C  0.97117696  0.34961061  0.43730735    -0.31440
H1075       H  0.94042732  0.31882858  0.46053070     0.12750
H1076       H  0.97808807  0.35939778  0.41382426     0.13330
C1077       C  0.12223343  0.42640446  0.19138947    -0.16270
C1078       C  0.14484073  0.40506858  0.19238737    -0.31440
H1079       H  0.11202469  0.43257319  0.21490407     0.12750
H1080       H  0.15524125  0.39823584  0.16920801     0.13330
C1081       C  0.13836894  0.38711294  0.43751552    -0.16270
C1082       C  0.11727588  0.40970146  0.43673061    -0.31440
H1083       H  0.14589185  0.37769101  0.46093557     0.12750
H1084       H  0.10770034  0.41724799  0.41337881     0.13330
C1085       C  0.05724847  0.21099566  0.43542963    -0.16270
C1086       C  0.08036394  0.23264978  0.43628332    -0.31440
H1087       H  0.04890939  0.20318050  0.41163812     0.12750
H1088       H  0.08982488  0.23905970  0.46008348     0.13330
C1089       C  0.06961674  0.20812211  0.18485379    -0.16270
C1090       C  0.06968347  0.23851508  0.19080915    -0.31440
H1091       H  0.08779017  0.19388981  0.19483328     0.12750
H1092       H  0.05174097  0.25217925  0.17995453     0.13330
C1093       C  0.02773893  0.29031878  0.24433701    -0.16270
C1094       C  0.02066884  0.26068379  0.24671688    -0.31440
H1095       H  0.01998127  0.30261780  0.22262483     0.12750
H1096       H  0.03537158  0.24565348  0.26075901     0.13330
C1097       C  0.50045060  0.28605364  0.15864479    -0.16270
C1098       C  0.52042846  0.28333859  0.13450769    -0.31440
H1099       H  0.50696854  0.27984951  0.18349640     0.12750
H1100       H  0.51535613  0.29109470  0.10959143     0.13330
C1101       C  0.25632570  0.32275833  0.35780113    -0.16270
C1102       C  0.26415105  0.32207163  0.38961356    -0.31440
H1103       H  0.27389773  0.32468347  0.33892082     0.12750
H1104       H  0.24643457  0.32229500  0.40845832     0.13330
C1105       C  0.37135190  0.39865691  0.06172816    -0.16270
C1106       C  0.39329744  0.42058237  0.06375578    -0.31440
H1107       H  0.36208050  0.38976305  0.08468989     0.12750
H1108       H  0.40285011  0.42900536  0.04071173     0.13330
C1109       C  0.38474966  0.39259985  0.31595533    -0.16270
C1110       C  0.40702010  0.41406266  0.31646833    -0.31440
H1111       H  0.37640564  0.38368689  0.29263695     0.12750
H1112       H  0.41724639  0.42097471  0.33971385     0.13330
C1113       C  0.47579378  0.23247279  0.06211724    -0.16270
C1114       C  0.44530698  0.23753862  0.06222312    -0.31440
H1115       H  0.48959251  0.24444462  0.04417813     0.12750
H1116       H  0.43067043  0.22509201  0.07924964     0.13330
C1117       C  0.46921659  0.22151892  0.31482067    -0.16270
C1118       C  0.44720789  0.24417574  0.31470514    -0.31440
H1119       H  0.47586981  0.21167115  0.33836657     0.12750
H1120       H  0.43905485  0.25245509  0.29100179     0.13330
C1121       C  0.75723771  0.24606219  0.39259991    -0.16270
C1122       C  0.76509766  0.24991039  0.36111487    -0.31440
H1123       H  0.77479013  0.24254599  0.41127183     0.12750
H1124       H  0.74745205  0.25140941  0.34222152     0.13330
C1125       C  0.65046299  0.16956219  0.06354256    -0.16270
C1126       C  0.62839684  0.14776434  0.06448473    -0.31440
H1127       H  0.65909997  0.17783075  0.08704330     0.12750
H1128       H  0.61940917  0.13990777  0.04095951     0.13330
C1129       C  0.61339832  0.15710995  0.31546775    -0.16270
C1130       C  0.63613523  0.17808073  0.31494471    -0.31440
H1131       H  0.60305090  0.15038267  0.33870954     0.12750
H1132       H  0.64472880  0.18670933  0.29159898     0.13330
C1133       C  0.57557756  0.32804282  0.06904251    -0.16270
C1134       C  0.54740275  0.34000994  0.06384809    -0.31440
H1135       H  0.58739681  0.33188273  0.09225991     0.12750
H1136       H  0.53546614  0.33474186  0.04102301     0.13330
C1137       C  0.57972336  0.33137124  0.31056629    -0.16270
C1138       C  0.55786429  0.35409176  0.31216289    -0.31440
H1139       H  0.58677184  0.32297518  0.28654413     0.12750
H1140       H  0.55230336  0.36371231  0.33611092     0.13330
C1141       C  0.52993521  0.28520172  0.50471741    -0.16270
C1142       C  0.52245891  0.31453486  0.50058042    -0.31440
H1143       H  0.52296478  0.27393429  0.52728535     0.12750
H1144       H  0.53706385  0.32869225  0.48538406     0.13330
C1145       C  0.54705152  0.04077450  0.23288861    -0.16270
C1146       C  0.54693273  0.03194791  0.26449403    -0.31440
H1147       H  0.54860544  0.02363203  0.21353587     0.12750
H1148       H  0.54755852  0.04920174  0.28380482     0.13330
C1149       C  0.46501040  0.53848082  0.26410197    -0.16270
C1150       C  0.46886649  0.52995705  0.23266292    -0.31440
H1151       H  0.46145692  0.52119376  0.28305239     0.12750
H1152       H  0.47031323  0.54718532  0.21333999     0.13330
C1153       C  0.51321163  0.76719335  0.37663852    -0.16270
C1154       C  0.54335717  0.77062384  0.37156548    -0.31440
H1155       H  0.50276032  0.77917221  0.39722749     0.12750
H1156       H  0.55547826  0.75393476  0.35695982     0.13330
C1157       C  0.47030452  0.83866600  0.42999617    -0.16270
C1158       C  0.44023861  0.83957807  0.43710883    -0.31440
H1159       H  0.48390640  0.82022780  0.44007383     0.12750
H1160       H  0.42649867  0.85852331  0.42800992     0.13330
C1161       C  0.44698484  0.82780255  0.18853829    -0.16270
C1162       C  0.46965010  0.84980247  0.18778408    -0.31440
H1163       H  0.43843801  0.82025239  0.21234561     0.12750
H1164       H  0.47656295  0.85876675  0.16392048     0.13330
C1165       C  0.39370016  0.65103314  0.43570216    -0.16270
C1166       C  0.37296612  0.67402363  0.43791036    -0.31440
H1167       H  0.40288362  0.64181397  0.45857442     0.12750
H1168       H  0.36417900  0.68357941  0.41501734     0.13330
C1169       C  0.38100169  0.68280050  0.18664642    -0.16270
C1170       C  0.40191838  0.66006354  0.18622518    -0.31440
H1171       H  0.37382056  0.69277497  0.20990203     0.12750
H1172       H  0.41094965  0.65179856  0.16294481     0.13330
C1173       C  0.55400376  0.74243722  0.44721074    -0.16270
C1174       C  0.55742847  0.71294125  0.43767485    -0.31440
H1175       H  0.53470231  0.75531819  0.43784500     0.12750
H1176       H  0.57737418  0.70020210  0.44593603     0.13330
C1177       C  0.58039512  0.73387038  0.18664894    -0.16270
C1178       C  0.55704819  0.71265227  0.18458248    -0.31440
H1179       H  0.59016319  0.73882918  0.21071009     0.12750
H1180       H  0.54841714  0.70626490  0.16041604     0.13330
C1181       C  0.62094492  0.92536788  0.44073602    -0.16270
C1182       C  0.64257409  0.90308077  0.44267408    -0.31440
H1183       H  0.61038552  0.93221107  0.46384927     0.12750
H1184       H  0.65390592  0.89591906  0.42013824     0.13330
C1185       C  0.64115644  0.88775058  0.18958674    -0.16270
C1186       C  0.61966920  0.90988943  0.18708664    -0.31440
H1187       H  0.64789643  0.87913346  0.21361405     0.12750
H1188       H  0.61112558  0.91675634  0.16307517     0.13330
C1189       C  0.51061478  0.80057807  0.03642938    -0.16270
C1190       C  0.50686185  0.78373010  0.00971281    -0.31440
H1191       H  0.50358806  0.79207079  0.06033452     0.12750
H1192       H  0.51465779  0.79135959  0.98560136     0.13330
C1193       C  0.96681846  0.03029539  0.48830167    -0.16270
C1194       C  0.96407000  0.03861716  0.01964192    -0.31440
H1195       H  0.96782459  0.04777602  0.46919480     0.12750
H1196       H  0.96135811  0.02118410  0.03859027     0.13330
C1197       C  0.05403690  0.53917408  0.48250997    -0.16270
C1198       C  0.05168410  0.53115002  0.01436765    -0.31440
H1199       H  0.05746855  0.52164529  0.46385372     0.12750
H1200       H  0.04960611  0.54861772  0.03332919     0.13330
C1201       C  0.00341308  0.76648899  0.36758013    -0.16270
C1202       C  0.97470033  0.77114245  0.37805780    -0.31440
H1203       H  0.00979247  0.77503590  0.34339640     0.12750
H1204       H  0.96486760  0.75493767  0.39517401     0.13330
C1205       C  0.76579190  0.82133631  0.13741260    -0.16270
C1206       C  0.75720382  0.81949564  0.10571854    -0.31440
H1207       H  0.74841720  0.82399542  0.15639785     0.12750
H1208       H  0.77442275  0.81907429  0.08638005     0.13330
C1209       C  0.94230069  0.73591417  0.31680033    -0.16270
C1210       C  0.96741704  0.71908979  0.30917342    -0.31440
H1211       H  0.93367717  0.73616038  0.34189592     0.12750
H1212       H  0.97701653  0.72102290  0.28452263     0.13330
C1213       C  0.96861496  0.71369077  0.06711204    -0.16270
C1214       C  0.94572733  0.73540000  0.06653356    -0.31440
H1215       H  0.97693426  0.70547359  0.09076783     0.12750
H1216       H  0.93626992  0.74202106  0.04278209     0.13330
C1217       C  0.88464627  0.90662065  0.29637614    -0.16270
C1218       C  0.89016482  0.90841848  0.32888129    -0.31440
H1219       H  0.89535719  0.92324600  0.28009879     0.12750
H1220       H  0.87843764  0.89234638  0.34498142     0.13330
C1221       C  0.88435753  0.88469827  0.06199699    -0.16270
C1222       C  0.90504342  0.90768127  0.06194721    -0.31440
H1223       H  0.87689494  0.87451264  0.03893376     0.12750
H1224       H  0.91454896  0.91607009  0.08499337     0.13330
C1225       C  0.25649435  0.75296013  0.14086295    -0.16270
C1226       C  0.26477015  0.75094482  0.10913266    -0.31440
H1227       H  0.27393297  0.75327191  0.16002334     0.12750
H1228       H  0.24727276  0.74848633  0.09020858     0.13330
C1229       C  0.06232697  0.82370727  0.31042019    -0.16270
C1230       C  0.06138073  0.85458037  0.31371521    -0.31440
H1231       H  0.04758317  0.80986589  0.32598475     0.12750
H1232       H  0.07713055  0.86877471  0.29969278     0.13330
C1233       C  0.07575921  0.82837201  0.05870156    -0.16270
C1234       C  0.05261186  0.84972452  0.05911742    -0.31440
H1235       H  0.08591442  0.82238202  0.03514027     0.12750
H1236       H  0.04400537  0.85719286  0.08291292     0.13330
C1237       C  0.14313508  0.68553883  0.05816755    -0.16270
C1238       C  0.12267667  0.66233483  0.05871650    -0.31440
H1239       H  0.14918046  0.69638565  0.03495684     0.12750
H1240       H  0.11469229  0.65318567  0.08208702     0.13330
C1241       C  0.15209246  0.67396196  0.31204734    -0.16270
C1242       C  0.13196310  0.65034967  0.31389447    -0.31440
H1243       H  0.15878832  0.68453835  0.33522467     0.12750
H1244       H  0.12466161  0.63976154  0.29095266     0.13330
C1245       C  0.00537752  0.78645392  0.24650364    -0.16270
C1246       C  0.01091804  0.76984556  0.22005280    -0.31440
H1247       H  0.01356768  0.77988198  0.27084845     0.12750
H1248       H  0.00394271  0.77774620  0.19587387     0.13330
Zr1249     Zr  0.14791518  0.76990812  0.63252002     2.17510
O1250       O  0.17379346  0.80788032  0.59826344    -0.51170
O1251       O  0.14486127  0.72995338  0.59036240    -0.74370
O1252       O  0.20352158  0.76102731  0.63022131    -0.81160
O1253       O  0.06605908  0.80563022  0.61692167    -0.82900
O1254       O  0.22050229  0.74299060  0.67994160    -0.78530
O1255       O  0.11338658  0.80024514  0.59416139    -0.90160
O1256       O  0.14310131  0.68586632  0.61927860    -0.76120
O1257       O  0.15788093  0.72304648  0.66178787    -0.85610
O1258       O  0.10027425  0.74368704  0.63571042    -0.85300
O1259       O  0.16845269  0.78213954  0.68673967    -0.72060
O1260       O  0.11585166  0.80287024  0.66446495    -0.84200
Zr1261     Zr  0.09997594  0.74351500  0.74887108     2.26420
Zr1262     Zr  0.17753418  0.73438679  0.71598825     2.06270
Zr1263     Zr  0.06822105  0.77582774  0.66800553     2.10050
Zr1264     Zr  0.11015486  0.69714236  0.66462406     1.78760
O1265       O  0.04258768  0.82418564  0.67947488    -0.93000
O1266       O  0.13201467  0.64655424  0.67426017    -0.40810
O1267       O  0.07817374  0.72944261  0.69665339    -0.77440
O1268       O  0.12995858  0.70815053  0.71797451    -0.96130
O1269       O  0.14743930  0.76921009  0.74753635    -0.89430
O1270       O  0.08823068  0.78945210  0.71996277    -0.92270
C1271       C  0.14369094  0.70059586  0.59222739     1.01480
C1272       C  0.08533564  0.81064071  0.59359688     1.14410
C1273       C  0.22474125  0.75206956  0.65024677     1.05190
O1274       O  0.21040221  0.68954207  0.71202105    -0.94430
O1275       O  0.17023643  0.70058396  0.76543913    -0.90170
O1276       O  0.12891885  0.72005036  0.79190366    -0.83320
C1277       C  0.15064191  0.70072214  0.78944543     1.11830
O1278       O  0.17131158  0.85287420  0.69528490    -0.96400
Zr1279     Zr  0.13586710  0.81531465  0.71831857     1.88940
O1280       O  0.08898208  0.78426349  0.78912575    -0.73050
O1281       O  0.21390600  0.75872338  0.75320605    -0.52310
O1282       O  0.17439650  0.82401277  0.76080483    -0.96990
O1283       O  0.11441389  0.86587795  0.70766149    -0.54210
O1284       O  0.10414960  0.82926283  0.76607491    -0.73570
C1285       C  0.08966909  0.81380166  0.78820920     0.98770
O1286       O  0.07426937  0.69749536  0.76923654    -0.62390
O1287       O  0.02667429  0.75584950  0.63401135    -0.57190
O1288       O  0.04890778  0.75138672  0.75893026    -0.93870
O1289       O  0.03192345  0.75042694  0.70599750    -0.92300
O1290       O  0.07027176  0.68687709  0.62386810    -0.92660
O1291       O  0.07543557  0.65819102  0.68610696    -0.91440
C1292       C  0.02803742  0.75057546  0.73760045     1.17620
H1293       H  0.09146207  0.74041213  0.61412805     0.33560
H1294       H  0.13104897  0.68850171  0.72878830     0.44410
H1295       H  0.07206144  0.80105191  0.73019192     0.37940
H1296       H  0.18766642  0.79282135  0.68404719     0.34420
H1297       H  0.12820946  0.63504912  0.65360958     0.26210
H1298       H  0.23164511  0.74461774  0.75367595     0.32150
H1299       H  0.16647232  0.84148495  0.77378050     0.38060
H1300       H  0.06820383  0.66431497  0.62308022     0.32510
H1301       H  0.03413613  0.75679428  0.61097687     0.31390
H1302       H  0.05603220  0.84010953  0.66983597     0.33070
H1303       H  0.12024971  0.87830568  0.72710787     0.32040
H1304       H  0.08015610  0.65689967  0.70995283     0.36040
H1305       H  0.05730023  0.69352572  0.75359035     0.28770
H1306       H  0.18542245  0.79599228  0.58168877     0.33010
H1307       H  0.17765370  0.86595045  0.71403128     0.35860
H1308       H  0.02625215  0.73367166  0.63908398     0.28470
H1309       H  0.08869255  0.68054596  0.76501834     0.41340
H1310       H  0.20380699  0.67923364  0.69145659     0.31390
H1311       H  0.15443977  0.64991310  0.67464380     0.39010
H1312       H  0.09200604  0.86311101  0.70987218     0.30860
H1313       H  0.22133969  0.77687829  0.74092042     0.30920
H1314       H  0.18956196  0.81720778  0.61268822     0.31190
Zr1315     Zr  0.87151596  0.79845168  0.62917262     2.17510
O1316       O  0.84304100  0.76104965  0.59667927    -0.51170
O1317       O  0.87465866  0.83808445  0.58653709    -0.74370
O1318       O  0.81674654  0.81019766  0.62751011    -0.81160
O1319       O  0.95029190  0.75639015  0.61338133    -0.82900
O1320       O  0.80261769  0.83357822  0.67557076    -0.78530
O1321       O  0.90387836  0.76616098  0.59026033    -0.90160
O1322       O  0.87714511  0.88045596  0.61751574    -0.76120
O1323       O  0.86630436  0.84715085  0.65637920    -0.85610
O1324       O  0.92110297  0.82097367  0.62982780    -0.85300
O1325       O  0.85069778  0.79087158  0.68441059    -0.72060
O1326       O  0.90035969  0.76357980  0.66264951    -0.84200
Zr1327     Zr  0.92480268  0.82645759  0.74497994     2.26420
Zr1328     Zr  0.84679302  0.84039858  0.71127411     2.06270
Zr1329     Zr  0.95018054  0.78681730  0.66282123     2.10050
Zr1330     Zr  0.91599767  0.86905917  0.65718416     1.78760
O1331       O  0.97268432  0.73645236  0.67133587    -0.93000
O1332       O  0.90099876  0.92217848  0.66610699    -0.40810
O1333       O  0.94511844  0.83505006  0.69029283    -0.77440
O1334       O  0.89729172  0.86238224  0.71155226    -0.96130
O1335       O  0.87475003  0.80498660  0.74488121    -0.89430
O1336       O  0.92865783  0.77911479  0.71621763    -0.92270
C1337       C  0.87632924  0.86729945  0.58963068     1.01480
C1338       C  0.93099087  0.75344447  0.58990564     1.14410
C1339       C  0.79682738  0.82232954  0.64697063     1.05190
O1340       O  0.81247902  0.88419058  0.70781729    -0.94430
O1341       O  0.85879995  0.88069899  0.75264179    -0.90170
O1342       O  0.89560835  0.85803034  0.78307715    -0.83320
C1343       C  0.87899709  0.88119902  0.77595142     1.11830
O1344       O  0.83984901  0.72215281  0.69860069    -0.96400
Zr1345     Zr  0.88011007  0.75648803  0.71798588     1.88940
O1346       O  0.93376369  0.78450287  0.78415500    -0.73050
O1347       O  0.81316531  0.81913245  0.75334153    -0.52310
O1348       O  0.84184373  0.75300162  0.76152823    -0.96990
O1349       O  0.89812342  0.70434576  0.70896480    -0.54210
O1350       O  0.91161188  0.74047526  0.76587706    -0.73570
C1351       C  0.92972581  0.75528170  0.78534357     0.98770
O1352       O  0.96053441  0.85508791  0.77925662    -0.62390
O1353       O  0.99072023  0.80988025  0.62969803    -0.57190
O1354       O  0.97672666  0.83063486  0.72894050    -0.93870
O1355       O  0.99378092  0.79367907  0.69779119    -0.92300
O1356       O  0.95222443  0.87603797  0.61196987    -0.92660
O1357       O  0.95543512  0.90452361  0.67599443    -0.91440
C1358       C  0.99010582  0.80518019  0.72628676     1.17620
H1359       H  0.92938546  0.82280346  0.60783064     0.33560
H1360       H  0.90003739  0.88293636  0.71962866     0.44410
H1361       H  0.94220354  0.76515325  0.72612205     0.37940
H1362       H  0.83055530  0.78187744  0.68267767     0.34420
H1363       H  0.90268617  0.93211513  0.64421505     0.26210
H1364       H  0.79923931  0.83618597  0.75910207     0.32150
H1365       H  0.84829939  0.73526372  0.77508781     0.38060
H1366       H  0.95802806  0.89795241  0.61244631     0.32510
H1367       H  0.98333035  0.80930212  0.60661095     0.31390
H1368       H  0.95562131  0.72184862  0.66795823     0.33070
H1369       H  0.89111000  0.69268203  0.72852584     0.32040
H1370       H  0.95761466  0.90019134  0.69987322     0.36040
H1371       H  0.95097478  0.87526560  0.78313542     0.28770
H1372       H  0.83177225  0.77310258  0.57989599     0.33010
H1373       H  0.83538505  0.70829156  0.71734685     0.35860
H1374       H  0.99049938  0.83184391  0.63569616     0.28470
H1375       H  0.96059365  0.84451587  0.80079527     0.41340
H1376       H  0.82223376  0.89794197  0.69145590     0.31390
H1377       H  0.87871562  0.92129883  0.67054736     0.39010
H1378       H  0.92063454  0.70554474  0.71159355     0.30860
H1379       H  0.80004197  0.80440261  0.74127534     0.30920
H1380       H  0.82706013  0.75296228  0.61167658     0.31190
Zr1381     Zr  0.03220521  0.64609975  0.99464161     2.17510
O1382       O  0.00101277  0.61619306  0.03281914    -0.51170
O1383       O  0.07084962  0.65161961  0.53391163    -0.74370
O1384       O  0.04501555  0.59155732  0.99336129    -0.81160
O1385       O  0.98744870  0.72459260  0.50855585    -0.82900
O1386       O  0.06498036  0.57740948  0.94354528    -0.78530
O1387       O  0.99640227  0.67729624  0.52999160    -0.90160
O1388       O  0.11414070  0.65734787  0.50442230    -0.76120
O1389       O  0.07881415  0.64290296  0.96314815    -0.85610
O1390       O  0.05167238  0.69661502  0.99076714    -0.85300
O1391       O  0.02134561  0.62431315  0.94055786    -0.72060
O1392       O  0.99329972  0.67230666  0.96432945    -0.84200
Zr1393     Zr  0.04741866  0.69965518  0.87573073     2.26420
Zr1394     Zr  0.06858507  0.62249265  0.90913025     2.06270
Zr1395     Zr  0.01302784  0.72333170  0.96119511     2.10050
Zr1396     Zr  0.09760760  0.69363332  0.95898921     1.78760
O1397       O  0.95934988  0.73870177  0.95869363    -0.93000
O1398       O  0.14975955  0.67933415  0.94413878    -0.40810
O1399       O  0.05915933  0.72030194  0.92950393    -0.77440
O1400       O  0.08740119  0.67360730  0.90557185    -0.96130
O1401       O  0.02935117  0.64840299  0.87856900    -0.89430
O1402       O  0.00159269  0.70191384  0.90795216    -0.92270
C1403       C  0.10001287  0.65509823  0.53170646     1.01480
C1404       C  0.98366896  0.70437968  0.53102621     1.14410
C1405       C  0.05569112  0.57163563  0.97289217     1.05190
O1406       O  0.11778142  0.59665669  0.91398030    -0.94430
O1407       O  0.10142514  0.63169908  0.85996690    -0.90170
O1408       O  0.08697105  0.67825428  0.84007927    -0.83320
C1409       C  0.10408233  0.65433816  0.83954412     1.11830
O1410       O  0.95058049  0.61184046  0.93458216    -0.96400
Zr1411     Zr  0.98312764  0.65123059  0.91016260     1.88940
O1412       O  0.00138116  0.70537176  0.83997624    -0.73050
O1413       O  0.04840487  0.58427137  0.87119894    -0.52310
O1414       O  0.97850418  0.60829682  0.87213329    -0.96990
O1415       O  0.93161330  0.66954955  0.92221313    -0.54210
O1416       O  0.96307104  0.67553319  0.86023894    -0.73570
C1417       C  0.97347887  0.69530765  0.83962178     0.98770
O1418       O  0.06239460  0.73676619  0.83420356    -0.62390
O1419       O  0.03640340  0.76462119  0.99309198    -0.57190
O1420       O  0.05333549  0.74936692  0.89783813    -0.93870
O1421       O  0.01584764  0.76763897  0.92703639    -0.92300
O1422       O  0.10688188  0.73233414  0.00118147    -0.92660
O1423       O  0.12861039  0.73495217  0.93616933    -0.91440
C1424       C  0.02861124  0.76418198  0.89917827     1.17620
H1425       H  0.05463954  0.70457518  0.51220910     0.33560
H1426       H  0.10726394  0.67548655  0.89548441     0.44410
H1427       H  0.98604511  0.71462238  0.89843048     0.37940
H1428       H  0.01310023  0.60393342  0.94306138     0.34420
H1429       H  0.16218150  0.68387088  0.96400318     0.26210
H1430       H  0.06541399  0.56953179  0.86833830     0.32150
H1431       H  0.96010219  0.61288571  0.85872167     0.38060
H1432       H  0.12918297  0.73638827  0.00050756     0.32510
H1433       H  0.03775814  0.75709449  0.01609276     0.31390
H1434       H  0.95834951  0.75674503  0.94402286     0.33070
H1435       H  0.91877454  0.66217267  0.90369327     0.32040
H1436       H  0.12354955  0.73513015  0.91234614     0.36040
H1437       H  0.08487704  0.73506420  0.83198425     0.28770
H1438       H  0.00975716  0.60597516  0.54297648     0.33010
H1439       H  0.93480992  0.60714245  0.91775164     0.35860
H1440       H  0.06300208  0.76499630  0.48369495     0.28470
H1441       H  0.05373547  0.72828271  0.81372591     0.41340
H1442       H  0.12539761  0.60227315  0.93618500     0.31390
H1443       H  0.14940654  0.65669820  0.94281056     0.39010
H1444       H  0.93271136  0.69200475  0.91900828     0.30860
H1445       H  0.03290293  0.57291967  0.88419137     0.30600
H1446       H  0.99111376  0.60017060  0.01919738     0.31190
Zr1447     Zr  0.99158982  0.92333216  0.99244196     2.17510
O1448       O  0.02769506  0.95051255  0.02783212    -0.51170
O1449       O  0.95032021  0.91772690  0.53577640    -0.74370
O1450       O  0.97870545  0.97794016  0.99654864    -0.81160
O1451       O  0.03170268  0.84299852  0.50838920    -0.82900
O1452       O  0.95922562  0.99451373  0.94732191    -0.78530
O1453       O  0.02182846  0.88880372  0.53294926    -0.90160
O1454       O  0.90750531  0.91510601  0.50497998    -0.76120
O1455       O  0.94423733  0.93064615  0.96325954    -0.85610
O1456       O  0.96894523  0.87422214  0.98736731    -0.85300
O1457       O  0.00256269  0.94650667  0.93923289    -0.72060
O1458       O  0.02672911  0.89470874  0.95944554    -0.84200
Zr1459     Zr  0.96931998  0.87718043  0.87244975     2.26420
Zr1460     Zr  0.95457251  0.95242418  0.90980673     2.06270
Zr1461     Zr  0.00281352  0.84562934  0.95362325     2.10050
Zr1462     Zr  0.92208788  0.88123075  0.95844303     1.78760
O1463       O  0.04939083  0.81704008  0.94193463    -0.93000
O1464       O  0.87059482  0.90021424  0.94748764    -0.40810
O1465       O  0.95653849  0.85366850  0.92438663    -0.77440
O1466       O  0.93227283  0.90262420  0.90593418    -0.96130
O1467       O  0.99160879  0.92635739  0.87689778    -0.89430
O1468       O  0.01563862  0.86829452  0.90235717    -0.92270
C1469       C  0.92112793  0.91542408  0.53268291     1.01480
C1470       C  0.03431950  0.86158251  0.53276279     1.14410
C1471       C  0.96806779  0.99875269  0.97702274     1.05190
O1472       O  0.91056882  0.98653337  0.91205227    -0.94430
O1473       O  0.91738584  0.94329863  0.86471670    -0.90170
O1474       O  0.94298413  0.90980956  0.83287070    -0.83320
C1475       C  0.91889233  0.92532649  0.83956953     1.11830
O1476       O  0.07322132  0.95385498  0.93249766    -0.96400
Zr1477     Zr  0.03807022  0.91755002  0.90672156     1.88940
O1478       O  0.01208480  0.86951128  0.83349645    -0.73050
O1479       O  0.97835539  0.98810132  0.87141329    -0.52310
O1480       O  0.04603224  0.95973164  0.86826978    -0.96990
O1481       O  0.08899744  0.89709755  0.91771563    -0.54210
O1482       O  0.05458410  0.89074139  0.85677480    -0.73570
C1483       C  0.04122048  0.87462797  0.83445524     0.98770
O1484       O  0.92632056  0.84892806  0.84838420    -0.62390
O1485       O  0.97963243  0.80717221  0.98956449    -0.57190
O1486       O  0.97892577  0.82574453  0.86283242    -0.93870
O1487       O  0.97655775  0.80979523  0.91608586    -0.92300
O1488       O  0.91500732  0.83917867  0.99742455    -0.92660
O1489       O  0.88564609  0.84396832  0.93690165    -0.91440
C1490       C  0.97712277  0.80518050  0.88466304     1.17620
H1491       H  0.96413118  0.86555963  0.51206693     0.33560
H1492       H  0.91227705  0.90112947  0.89599338     0.44410
H1493       H  0.02880955  0.85359685  0.89173748     0.37940
H1494       H  0.01173108  0.96638977  0.94263088     0.34420
H1495       H  0.85885679  0.89575961  0.96783653     0.26210
H1496       H  0.96157468  0.00209033  0.86487041     0.32150
H1497       H  0.06451179  0.95395266  0.85559080     0.38060
H1498       H  0.89258182  0.83696558  0.00007711     0.32510
H1499       H  0.98651255  0.78733450  0.98073892     0.31390
H1500       H  0.06631003  0.83108403  0.94792477     0.33070
H1501       H  0.10169463  0.90397993  0.89887293     0.32040
H1502       H  0.88742661  0.84572423  0.91262730     0.36040
H1503       H  0.92210236  0.83167838  0.86359383     0.28770
H1504       H  0.01441716  0.96108636  0.54626290     0.33010
H1505       H  0.08816627  0.95956549  0.91518564     0.35860
H1506       H  0.97933535  0.81588933  0.51785312     0.28470
H1507       H  0.90825951  0.86224959  0.85129096     0.41340
H1508       H  0.89626260  0.97641358  0.92757247     0.31390
H1509       H  0.87275209  0.92278704  0.94719747     0.39010
H1510       H  0.08687368  0.87472611  0.91451979     0.30860
H1511       H  0.99199742  0.00081321  0.88533151     0.30920
H1512       H  0.03589941  0.96738244  0.01407066     0.31190
Zr1513     Zr  0.64799640  0.80034231  0.61983381     2.17510
O1514       O  0.67700764  0.76381164  0.65297657    -0.51170
O1515       O  0.64712027  0.83939307  0.66315515    -0.74370
O1516       O  0.70321019  0.80967475  0.61719146    -0.81160
O1517       O  0.56733991  0.76382293  0.64155361    -0.82900
O1518       O  0.71681318  0.82787535  0.56640617    -0.78530
O1519       O  0.61725311  0.76522911  0.65758199    -0.90160
O1520       O  0.64691730  0.88310027  0.63395480    -0.76120
O1521       O  0.65625326  0.84741305  0.59011185    -0.85610
O1522       O  0.60122579  0.82808305  0.62216304    -0.85300
O1523       O  0.66362549  0.78873985  0.56353130    -0.72060
O1524       O  0.61302359  0.76866288  0.59031321    -0.84200
Zr1525     Zr  0.58824256  0.83069475  0.50835403     2.26420
Zr1526     Zr  0.67079982  0.83659886  0.53420360     2.06270
Zr1527     Zr  0.56600134  0.79630751  0.59368499     2.10050
Zr1528     Zr  0.60931997  0.87459406  0.59210518     1.78760
O1529       O  0.54462257  0.74495821  0.58844300    -0.93000
O1530       O  0.63074883  0.92555185  0.58361413    -0.40810
O1531       O  0.57395636  0.84299197  0.56404778    -0.77440
O1532       O  0.62369370  0.86392171  0.53665453    -0.96130
O1533       O  0.63576092  0.80434597  0.50471048    -0.89430
O1534       O  0.57988926  0.78401685  0.53809116    -0.92270
C1535       C  0.64654923  0.86875390  0.66121078     1.01480
C1536       C  0.58907726  0.75540391  0.66060593     1.14410
C1537       C  0.72302196  0.81892869  0.59582619     1.05190
O1538       O  0.70323333  0.88194185  0.53640459    -0.94430
O1539       O  0.66556125  0.87407646  0.98751029    -0.90170
O1540       O  0.61753014  0.86469740  0.96849505    -0.83320
C1541       C  0.64307653  0.87906449  0.96747732     1.11830
O1542       O  0.66277515  0.71820457  0.55319936    -0.96400
Zr1543     Zr  0.62738551  0.75763247  0.53406354     1.88940
O1544       O  0.57665186  0.78900856  0.96945309    -0.73050
O1545       O  0.70399371  0.81093169  0.49476453    -0.52310
O1546       O  0.66392856  0.75078032  0.48932553    -0.96990
O1547       O  0.60663276  0.70645389  0.54327584    -0.54210
O1548       O  0.59764831  0.74429995  0.98722312    -0.73570
C1549       C  0.57963857  0.75957452  0.96836133     0.98770
O1550       O  0.55480620  0.85142527  0.46579097    -0.62390
O1551       O  0.53150586  0.82177539  0.63230647    -0.57190
O1552       O  0.54203187  0.84575304  0.53490785    -0.93870
O1553       O  0.52033458  0.81027435  0.56449156    -0.92300
O1554       O  0.57175468  0.88557577  0.63498071    -0.92660
O1555       O  0.57614112  0.91467345  0.57028539    -0.91440
C1556       C  0.52189547  0.82507579  0.53770505     1.17620
H1557       H  0.59439560  0.83146069  0.64451038     0.33560
H1558       H  0.62510165  0.88422287  0.52744861     0.44410
H1559       H  0.56294410  0.77209795  0.52986168     0.37940
H1560       H  0.68281308  0.77778135  0.56412246     0.34420
H1561       H  0.62896471  0.93587563  0.60526939     0.26210
H1562       H  0.72129945  0.82530153  0.49154829     0.32150
H1563       H  0.65795667  0.73115009  0.47893436     0.38060
H1564       H  0.56639466  0.90746130  0.63233972     0.32510
H1565       H  0.54203419  0.82165145  0.65394275     0.31390
H1566       H  0.56244512  0.73098192  0.58828643     0.33070
H1567       H  0.61345577  0.69430033  0.52401807     0.32040
H1568       H  0.57125896  0.90802238  0.54752833     0.36040
H1569       H  0.55518616  0.87394354  0.46860039     0.28770
H1570       H  0.68964902  0.77632771  0.66814352     0.33010
H1571       H  0.68314223  0.72432039  0.54471927     0.35860
H1572       H  0.53131615  0.84349894  0.62538276     0.28470
H1573       H  0.56532699  0.84739632  0.44466107     0.41340
H1574       H  0.69889930  0.89114570  0.55821822     0.31390
H1575       H  0.65299286  0.92218023  0.58064448     0.39010
H1576       H  0.58424858  0.70854733  0.54012413     0.30860
H1577       H  0.71293894  0.79358382  0.50722187     0.30920
H1578       H  0.69177540  0.75425591  0.63758980     0.31190
Zr1579     Zr  0.37334313  0.76959058  0.61946608     2.17510
O1580       O  0.34563259  0.80516886  0.65484313    -0.51170
O1581       O  0.37568783  0.72802314  0.65977092    -0.74370
O1582       O  0.31796751  0.75996181  0.61844095    -0.81160
O1583       O  0.45368770  0.80817954  0.63871374    -0.82900
O1584       O  0.30315764  0.74057790  0.56855190    -0.78530
O1585       O  0.40622054  0.79992824  0.66006802    -0.90160
O1586       O  0.38166107  0.68505563  0.62953458    -0.76120
O1587       O  0.36688659  0.72264708  0.58923423    -0.85610
O1588       O  0.42210080  0.74627771  0.61652991    -0.85300
O1589       O  0.35326350  0.78107757  0.56487279    -0.72060
O1590       O  0.40365636  0.80492697  0.58871596    -0.84200
Zr1591     Zr  0.42827871  0.74670877  0.50190762     2.26420
Zr1592     Zr  0.34825203  0.73356810  0.53471363     2.06270
Zr1593     Zr  0.45305225  0.78153227  0.58655437     2.10050
Zr1594     Zr  0.41594129  0.69977425  0.58638944     1.78760
O1595       O  0.46816386  0.83484926  0.57792295    -0.93000
O1596       O  0.39758026  0.64855638  0.57292261    -0.40810
O1597       O  0.44623104  0.73516839  0.55652935    -0.77440
O1598       O  0.39768633  0.71021374  0.53218725    -0.96130
O1599       O  0.37856570  0.76913399  0.50360510    -0.89430
O1600       O  0.43390489  0.79342572  0.53251026    -0.92270
C1601       C  0.37822026  0.69883481  0.65692106     1.01480
C1602       C  0.43391728  0.81137973  0.66170023     1.14410
C1603       C  0.29762256  0.75017745  0.59783442     1.05190
O1604       O  0.32011333  0.68562534  0.53984606    -0.94430
O1605       O  0.35250031  0.69798367  0.98580046    -0.90170
O1606       O  0.39565602  0.71455360  0.95995858    -0.83320
C1607       C  0.37235836  0.69690625  0.96219671     1.11830
O1608       O  0.34952746  0.85286748  0.55856308    -0.96400
Zr1609     Zr  0.38436615  0.81562675  0.53410283     1.88940
O1610       O  0.43363134  0.78274170  0.95956099    -0.73050
O1611       O  0.31129366  0.75659608  0.49714742    -0.52310
O1612       O  0.34085946  0.82298263  0.49724445    -0.96990
O1613       O  0.40772699  0.86579006  0.54252173    -0.54210
O1614       O  0.41528838  0.82719048  0.98119382    -0.73570
C1615       C  0.43056586  0.81214327  0.95952284     0.98770
O1616       O  0.46651028  0.72413493  0.46535810    -0.62390
O1617       O  0.49107368  0.75842041  0.62297842    -0.57190
O1618       O  0.48052014  0.73585282  0.51504395    -0.93870
O1619       O  0.49705188  0.76306794  0.55562352    -0.92300
O1620       O  0.45418285  0.68967636  0.62892927    -0.92660
O1621       O  0.45471973  0.66451692  0.56595981    -0.91440
C1622       C  0.49521605  0.75908752  0.52475233     1.17620
H1623       H  0.43011711  0.74270407  0.63840098     0.33560
H1624       H  0.39730483  0.69023740  0.52211414     0.44410
H1625       H  0.44770294  0.80784975  0.52249141     0.37940
H1626       H  0.33355276  0.79090292  0.56680828     0.34420
H1627       H  0.40100790  0.63634056  0.59319654     0.26210
H1628       H  0.29531428  0.74070431  0.49431076     0.32150
H1629       H  0.34650722  0.84074423  0.48330349     0.38060
H1630       H  0.45473469  0.66711539  0.63125014     0.32510
H1631       H  0.50662689  0.77435938  0.62659030     0.31390
H1632       H  0.47897080  0.84165017  0.59809213     0.33070
H1633       H  0.39924875  0.87891539  0.52479027     0.32040
H1634       H  0.45681072  0.66968507  0.54227029     0.36040
H1635       H  0.45745099  0.70571630  0.45510594     0.28770
H1636       H  0.33345646  0.79219609  0.67001286     0.33010
H1637       H  0.34472730  0.86773769  0.54083759     0.35860
H1638       H  0.48123958  0.75583606  0.64478903     0.28470
H1639       H  0.46978885  0.73899721  0.44730961     0.41340
H1640       H  0.32355683  0.67900531  0.56292695     0.31390
H1641       H  0.37504973  0.65064286  0.57135725     0.39010
H1642       H  0.42950555  0.86310516  0.53643071     0.30860
H1643       H  0.30120585  0.77283059  0.51024286     0.30920
H1644       H  0.33037825  0.81516667  0.64029646     0.31190
Zr1645     Zr  0.49062393  0.64503866  0.75618318     2.17510
O1646       O  0.52404202  0.61581901  0.71977395    -0.51170
O1647       O  0.44954839  0.65032933  0.71547859    -0.74370
O1648       O  0.47783224  0.59024236  0.75559979    -0.81160
O1649       O  0.53710697  0.72153897  0.74061487    -0.82900
O1650       O  0.45669468  0.57591975  0.80485047    -0.78530
O1651       O  0.52428204  0.67612821  0.71705355    -0.90160
O1652       O  0.40654637  0.65785702  0.74523223    -0.76120
O1653       O  0.44296477  0.64094603  0.78563527    -0.85610
O1654       O  0.46974861  0.69519926  0.75869321    -0.85300
O1655       O  0.50001573  0.62341322  0.81067862    -0.72060
O1656       O  0.52788079  0.67248506  0.78790015    -0.84200
Zr1657     Zr  0.46932716  0.69905091  0.87306212     2.26420
Zr1658     Zr  0.45171119  0.62062899  0.83995490     2.06270
Zr1659     Zr  0.50667913  0.72305702  0.78963670     2.10050
Zr1660     Zr  0.42269967  0.69116965  0.78853314     1.78760
O1661       O  0.55742530  0.74477834  0.79842345    -0.93000
O1662       O  0.37030760  0.67597843  0.80138100    -0.40810
O1663       O  0.45918687  0.71962510  0.81896188    -0.77440
O1664       O  0.43122271  0.67120700  0.84240570    -0.96130
O1665       O  0.48880801  0.64817707  0.87188880    -0.89430
O1666       O  0.51618642  0.70155314  0.84302965    -0.92270
C1667       C  0.42045140  0.65411911  0.71797965     1.01480
C1668       C  0.53869553  0.70242595  0.71695784     1.14410
C1669       C  0.46653818  0.57021101  0.77565496     1.05190
O1670       O  0.40261562  0.59470490  0.83400734    -0.94430
O1671       O  0.41897862  0.62872621  0.88941956    -0.90170
O1672       O  0.43063045  0.67644354  0.90814920    -0.83320
C1673       C  0.41513561  0.65153921  0.90933287     1.11830
O1674       O  0.57032143  0.61276823  0.82007623    -0.96400
Zr1675     Zr  0.53622080  0.65167190  0.84266597     1.88940
O1676       O  0.51276858  0.70668079  0.91115215    -0.73050
O1677       O  0.47168062  0.58188657  0.87745591    -0.52310
O1678       O  0.54034506  0.60969595  0.88207075    -0.96990
O1679       O  0.58807826  0.67060300  0.83354004    -0.54210
O1680       O  0.55296017  0.67829747  0.89288725    -0.73570
C1681       C  0.54096616  0.69796474  0.91264404     0.98770
O1682       O  0.44982107  0.73607412  0.91242829    -0.62390
O1683       O  0.48533460  0.76375587  0.75536860    -0.57190
O1684       O  0.46428700  0.74908309  0.85119882    -0.93870
O1685       O  0.50230089  0.76767172  0.82296709    -0.92300
O1686       O  0.41374268  0.72947509  0.74578839    -0.92660
O1687       O  0.39029936  0.73184873  0.81016967    -0.91440
C1688       C  0.48897057  0.76410189  0.85048069     1.17620
H1689       H  0.46699674  0.70378356  0.73692113     0.33560
H1690       H  0.41111962  0.67214105  0.85212407     0.44410
H1691       H  0.53110110  0.71450421  0.85306108     0.37940
H1692       H  0.50858767  0.60315630  0.80844503     0.34420
H1693       H  0.35848645  0.68041879  0.78106664     0.26210
H1694       H  0.45518519  0.56635611  0.87881517     0.32150
H1695       H  0.55825309  0.61496790  0.89596233     0.38060
H1696       H  0.39122205  0.73190840  0.74476433     0.32510
H1697       H  0.48513479  0.75569901  0.73255363     0.31390
H1698       H  0.57186663  0.72791223  0.79361729     0.33070
H1699       H  0.60022317  0.66251155  0.85226201     0.32040
H1700       H  0.39474932  0.73220947  0.83413282     0.36040
H1701       H  0.42757299  0.73738073  0.90788214     0.28770
H1702       H  0.51021705  0.60495912  0.70432280     0.33010
H1703       H  0.58514693  0.60798926  0.83785170     0.35860
H1704       H  0.46349413  0.76492717  0.76175846     0.28470
H1705       H  0.45143878  0.72589987  0.93403956     0.41340
H1706       H  0.39576491  0.59978470  0.81135812     0.31390
H1707       H  0.37092998  0.65334576  0.80266633     0.39010
H1708       H  0.58683452  0.69288802  0.83775584     0.30860
H1709       H  0.48822041  0.57168435  0.86491170     0.30920
H1710       H  0.53308336  0.59955991  0.73377123     0.31190
Zr1711     Zr  0.53083247  0.92191270  0.75844130     2.17510
O1712       O  0.49565701  0.94785308  0.72089449    -0.51170
O1713       O  0.57181114  0.91654528  0.71746374    -0.74370
O1714       O  0.53997127  0.97753797  0.75567187    -0.81160
O1715       O  0.48990099  0.84179179  0.74585357    -0.82900
O1716       O  0.55927895  0.99447408  0.80478895    -0.78530
O1717       O  0.49814561  0.88816894  0.72171909    -0.90160
O1718       O  0.61504273  0.91330053  0.74767733    -0.76120
O1719       O  0.57786557  0.93014981  0.78798280    -0.85610
O1720       O  0.55444478  0.87307767  0.76342610    -0.85300
O1721       O  0.51890829  0.94409921  0.81186646    -0.72060
O1722       O  0.49594826  0.89217277  0.79081278    -0.84200
Zr1723     Zr  0.55342661  0.87487635  0.87711302     2.26420
Zr1724     Zr  0.56675098  0.95147864  0.84137170     2.06270
Zr1725     Zr  0.52039744  0.84339884  0.79633756     2.10050
Zr1726     Zr  0.60106239  0.88120059  0.79288250     1.78760
O1727       O  0.47179137  0.81854485  0.80888637    -0.93000
O1728       O  0.65258259  0.90036069  0.80358707    -0.40810
O1729       O  0.56692830  0.85155358  0.82547834    -0.77440
O1730       O  0.59032198  0.90251792  0.84548235    -0.96130
O1731       O  0.53028117  0.92362054  0.87352242    -0.89430
O1732       O  0.50721868  0.86500134  0.84770380    -0.92270
C1733       C  0.60107670  0.91427352  0.72019313     1.01480
C1734       C  0.48596557  0.86084019  0.72207759     1.14410
C1735       C  0.54959519  0.99876592  0.77529199     1.05190
O1736       O  0.61287150  0.98245758  0.83598781    -0.94430
O1737       O  0.60055315  0.94482964  0.89060429    -0.90170
O1738       O  0.58089445  0.90379863  0.91767821    -0.83320
C1739       C  0.60033036  0.92547314  0.91481878     1.11830
O1740       O  0.44813718  0.95039566  0.81967799    -0.96400
Zr1741     Zr  0.48394806  0.91384256  0.84386658     1.88940
O1742       O  0.51192651  0.86922918  0.91768697    -0.73050
O1743       O  0.54385162  0.98897031  0.87822021    -0.52310
O1744       O  0.47603791  0.95377933  0.88488377    -0.96990
O1745       O  0.43292054  0.89375479  0.83247573    -0.54210
O1746       O  0.46801878  0.88428670  0.89224343    -0.73570
C1747       C  0.48251446  0.87080204  0.91572610     0.98770
O1748       O  0.59559837  0.84596296  0.90185064    -0.62390
O1749       O  0.53847985  0.80080807  0.76278710    -0.57190
O1750       O  0.54202242  0.82393853  0.88754251    -0.93870
O1751       O  0.54509495  0.80725981  0.83469717    -0.92300
O1752       O  0.60985573  0.84047736  0.75282592    -0.92660
O1753       O  0.63802936  0.84513504  0.81566788    -0.91440
C1754       C  0.54294666  0.80305777  0.86610083     1.17620
H1755       H  0.55750786  0.86368255  0.74212088     0.33560
H1756       H  0.60991760  0.90273606  0.85647157     0.44410
H1757       H  0.49464602  0.84972106  0.85828375     0.37940
H1758       H  0.50900002  0.96363494  0.80868456     0.34420
H1759       H  0.66417374  0.89629092  0.78306230     0.26210
H1760       H  0.55862416  0.00618991  0.87848447     0.32150
H1761       H  0.45805197  0.94685754  0.89776185     0.38060
H1762       H  0.63228058  0.83718687  0.75259382     0.32510
H1763       H  0.53783920  0.80814410  0.73967580     0.31390
H1764       H  0.45596980  0.83175553  0.79871564     0.33070
H1765       H  0.42027028  0.90035960  0.85144218     0.32040
H1766       H  0.63542493  0.84668632  0.83986345     0.36040
H1767       H  0.59923538  0.82827168  0.88712131     0.28770
H1768       H  0.50874719  0.95923905  0.70514387     0.33010
H1769       H  0.43436617  0.95665115  0.83785057     0.35860
H1770       H  0.56062241  0.79946670  0.76785241     0.28470
H1771       H  0.61398117  0.85882145  0.89842170     0.41340
H1772       H  0.62264488  0.97509141  0.81544619     0.31390
H1773       H  0.65036811  0.92291414  0.80425137     0.39010
H1774       H  0.43489774  0.87132986  0.83533059     0.30860
H1775       H  0.52597529  0.99696419  0.86587825     0.30920
H1776       H  0.48545087  0.96379783  0.73430784     0.31190
Zr1777     Zr  0.64584670  0.26835519  0.88384915     2.17510
O1778       O  0.67257088  0.30527149  0.84900799    -0.51170
O1779       O  0.64216949  0.22804190  0.84190016    -0.74370
O1780       O  0.70145011  0.25937411  0.88327718    -0.81160
O1781       O  0.56475723  0.30623281  0.86787827    -0.82900
O1782       O  0.71720964  0.23861256  0.93219669    -0.78530
O1783       O  0.61218968  0.30006583  0.84564258    -0.90160
O1784       O  0.64004564  0.18534862  0.87268942    -0.76120
O1785       O  0.65269595  0.22035664  0.91188409    -0.85610
O1786       O  0.59686241  0.24511097  0.88656059    -0.85300
O1787       O  0.66642446  0.27818803  0.93865234    -0.72060
O1788       O  0.61603210  0.30197571  0.91729618    -0.84200
Zr1789     Zr  0.59440145  0.23960354  0.00171040     2.26420
Zr1790     Zr  0.67277025  0.22943037  0.96617529     2.06270
Zr1791     Zr  0.56678455  0.27830624  0.91977422     2.10050
Zr1792     Zr  0.60352598  0.19723572  0.91450771     1.78760
O1793       O  0.54806711  0.33058406  0.92788719    -0.93000
O1794       O  0.62061521  0.14472549  0.92345694    -0.40810
O1795       O  0.57315684  0.23033520  0.94734049    -0.77440
O1796       O  0.62372506  0.20521887  0.96844274    -0.96130
O1797       O  0.64344306  0.26329371  0.00000263    -0.89430
O1798       O  0.58663039  0.28795653  0.97338924    -0.92270
C1799       C  0.64048936  0.19878373  0.84491945     1.01480
C1800       C  0.58428578  0.31090324  0.84481736     1.14410
C1801       C  0.72221828  0.24928183  0.90324467     1.05190
O1802       O  0.70249586  0.18286055  0.95843053    -0.94430
O1803       O  0.66736777  0.19780884  0.51513175    -0.90170
O1804       O  0.61950334  0.20877685  0.53373899    -0.83320
C1805       C  0.64461422  0.19364028  0.53499155     1.11830
O1806       O  0.67140926  0.34913334  0.95080183    -0.96400
Zr1807     Zr  0.63560780  0.31102903  0.97215913     1.88940
O1808       O  0.58893524  0.29170748  0.53566561    -0.73050
O1809       O  0.70970352  0.25124291  0.00457575    -0.52310
O1810       O  0.67700656  0.31706729  0.01196394    -0.96990
O1811       O  0.61341184  0.36177661  0.96450645    -0.54210
O1812       O  0.61646968  0.33202248  0.51608989    -0.73570
C1813       C  0.59714901  0.32010640  0.53627740     0.98770
O1814       O  0.56680918  0.19443588  0.02157313    -0.62390
O1815       O  0.52402416  0.25782516  0.88810496    -0.57190
O1816       O  0.54228334  0.24364543  0.01698554    -0.93870
O1817       O  0.54324493  0.24720064  0.96366726    -0.92300
O1818       O  0.56569326  0.19012493  0.87075995    -0.92660
O1819       O  0.56560236  0.16024978  0.93357916    -0.91440
C1820       C  0.53128734  0.25522747  0.99119825     1.17620
H1821       H  0.58798636  0.24284782  0.86485995     0.33560
H1822       H  0.62447088  0.18517816  0.97845296     0.44410
H1823       H  0.57203712  0.30119098  0.98401161     0.37940
H1824       H  0.68600179  0.28831910  0.93670279     0.34420
H1825       H  0.61810087  0.13444819  0.90185457     0.26210
H1826       H  0.72647865  0.23602091  0.00547851     0.32150
H1827       H  0.67014726  0.33374718  0.02673124     0.38060
H1828       H  0.56034580  0.16809467  0.87105247     0.32510
H1829       H  0.53014702  0.25943159  0.86465531     0.31390
H1830       H  0.56399182  0.34400764  0.91821484     0.33070
H1831       H  0.62108022  0.37404000  0.98332600     0.32040
H1832       H  0.56936605  0.15825647  0.95757126     0.36040
H1833       H  0.55176353  0.18935109  0.00410298     0.28770
H1834       H  0.68452028  0.29289147  0.83313101     0.33010
H1835       H  0.67625840  0.36279228  0.96958013     0.35860
H1836       H  0.52472794  0.23554594  0.89259990     0.28470
H1837       H  0.58169039  0.17742858  0.02026353     0.41340
H1838       H  0.69573457  0.17484558  0.93676954     0.31390
H1839       H  0.64305303  0.14631564  0.92659182     0.39010
H1840       H  0.59132150  0.35907898  0.96916001     0.30860
H1841       H  0.71861430  0.26894898  0.99267824     0.30920
H1842       H  0.68804976  0.31498031  0.86350391     0.31190
Zr1843     Zr  0.37224965  0.30259927  0.88016294     2.17510
O1844       O  0.34400021  0.26666758  0.84556126    -0.51170
O1845       O  0.37487485  0.34275184  0.83812055    -0.74370
O1846       O  0.31713025  0.31251248  0.88102739    -0.81160
O1847       O  0.45240560  0.26474767  0.86291452    -0.82900
O1848       O  0.30226869  0.33087691  0.93129875    -0.78530
O1849       O  0.40439382  0.26980087  0.84184212    -0.90160
O1850       O  0.37548621  0.38576136  0.86842190    -0.76120
O1851       O  0.36402281  0.34956303  0.90988256    -0.85610
O1852       O  0.42023739  0.32806303  0.88107944    -0.85300
O1853       O  0.35360746  0.29102894  0.93531696    -0.72060
O1854       O  0.40456885  0.26917612  0.91106033    -0.84200
Zr1855     Zr  0.42743587  0.32896622  0.99691693     2.26420
Zr1856     Zr  0.34721838  0.33860947  0.96506087     2.06270
Zr1857     Zr  0.45262882  0.29524467  0.91251658     2.10050
Zr1858     Zr  0.41184324  0.37493790  0.91087644     1.78760
O1859       O  0.47934098  0.24933178  0.93121769    -0.93000
O1860       O  0.39194439  0.42618253  0.92104224    -0.40810
O1861       O  0.44236407  0.34126964  0.94144631    -0.77440
O1862       O  0.39572595  0.36411662  0.96609236    -0.96130
O1863       O  0.37883595  0.30433880  0.99647246    -0.89430
O1864       O  0.43564931  0.28210568  0.96702436    -0.92270
C1865       C  0.37565263  0.37203594  0.84083689     1.01480
C1866       C  0.43226869  0.25898864  0.84086529     1.14410
C1867       C  0.29685245  0.32191871  0.90176850     1.05190
O1868       O  0.31650390  0.38498615  0.96113342    -0.94430
O1869       O  0.35005832  0.37169699  0.51575308    -0.90170
O1870       O  0.39040951  0.35128409  0.54343403    -0.83320
C1871       C  0.36914810  0.37123098  0.54015781     1.11830
O1872       O  0.35222973  0.21951262  0.94294483    -0.96400
Zr1873     Zr  0.38663509  0.25801475  0.96605305     1.88940
O1874       O  0.42909497  0.28221832  0.54076032    -0.73050
O1875       O  0.31163055  0.31408852  0.00302798    -0.52310
O1876       O  0.34444485  0.24941889  0.00429098    -0.96990
O1877       O  0.41083341  0.20848433  0.95667520    -0.54210
O1878       O  0.40735933  0.23968839  0.51826828    -0.73570
C1879       C  0.42406995  0.25313116  0.54003439     0.98770
O1880       O  0.45982996  0.35994035  0.03250735    -0.62390
O1881       O  0.49638477  0.31109135  0.87919935    -0.57190
O1882       O  0.48186935  0.33713305  0.99666405    -0.93870
O1883       O  0.47782365  0.33522718  0.94360009    -0.92300
O1884       O  0.45143857  0.38379823  0.86944995    -0.92660
O1885       O  0.44729491  0.41336848  0.93198006    -0.91440
C1886       C  0.49215243  0.32767358  0.96947626     1.17620
H1887       H  0.42845969  0.33116148  0.85920491     0.33560
H1888       H  0.39487605  0.38387085  0.97666394     0.44410
H1889       H  0.45081823  0.26939095  0.97752668     0.37940
H1890       H  0.33413154  0.28063682  0.93369236     0.34420
H1891       H  0.39410633  0.43711794  0.89974689     0.26210
H1892       H  0.29535263  0.32952496  0.00648854     0.32150
H1893       H  0.35106667  0.23198121  0.01820202     0.38060
H1894       H  0.45566636  0.40606803  0.86987425     0.32510
H1895       H  0.48926541  0.31017983  0.85602234     0.31390
H1896       H  0.46934459  0.23232507  0.91917267     0.33070
H1897       H  0.40377472  0.19531319  0.97507397     0.32040
H1898       H  0.45236343  0.40628802  0.95455574     0.36040
H1899       H  0.45244752  0.38130252  0.03037155     0.28770
H1900       H  0.33199395  0.27947885  0.83007330     0.33010
H1901       H  0.34821638  0.20470814  0.96095800     0.35860
H1902       H  0.49877554  0.33327432  0.88349185     0.28470
H1903       H  0.45412599  0.35329379  0.05499884     0.41340
H1904       H  0.32080388  0.39315706  0.93881244     0.31390
H1905       H  0.36959813  0.42332765  0.92381065     0.39010
H1906       H  0.43282413  0.21194878  0.96131707     0.30860
H1907       H  0.30165010  0.29780581  0.98985322     0.30920
H1908       H  0.32862456  0.25710185  0.86028461     0.31190
Zr1909     Zr  0.52810610  0.14740542  0.74526141     2.17510
O1910       O  0.49061955  0.11883858  0.77758009    -0.51170
O1911       O  0.56651229  0.14956947  0.78921762    -0.74370
O1912       O  0.53768374  0.09204180  0.74366213    -0.81160
O1913       O  0.49221783  0.22827767  0.76424351    -0.82900
O1914       O  0.55707183  0.07778635  0.69364389    -0.78530
O1915       O  0.49438811  0.17920867  0.78298702    -0.90160
O1916       O  0.61008804  0.14949712  0.76012342    -0.76120
O1917       O  0.57579750  0.13932177  0.71683491    -0.85610
O1918       O  0.55450670  0.19503909  0.74652583    -0.85300
O1919       O  0.51762793  0.13023513  0.68927417    -0.72060
O1920       O  0.49625791  0.18106907  0.71401518    -0.84200
Zr1921     Zr  0.55957696  0.20480976  0.63141053     2.26420
Zr1922     Zr  0.56597426  0.12344748  0.66109951     2.06270
Zr1923     Zr  0.52323339  0.22869202  0.71499903     2.10050
Zr1924     Zr  0.60201608  0.18684121  0.71794289     1.78760
O1925       O  0.47622708  0.25401195  0.69724734    -0.93000
O1926       O  0.65367956  0.16644888  0.71195440    -0.40810
O1927       O  0.57052640  0.22005614  0.68736959    -0.77440
O1928       O  0.59248157  0.17124417  0.66232174    -0.96130
O1929       O  0.53368791  0.15681039  0.62977981    -0.89430
O1930       O  0.51198915  0.21264158  0.66023660    -0.92270
C1931       C  0.59583972  0.15055477  0.78734241     1.01480
C1932       C  0.48469107  0.20744904  0.78490668     1.14410
C1933       C  0.54741121  0.07192572  0.72284873     1.05190
O1934       O  0.61229275  0.09265403  0.66496181    -0.94430
O1935       O  0.59911617  0.13054363  0.61207748    -0.90170
O1936       O  0.58383549  0.17540407  0.58877474    -0.83320
C1937       C  0.60041084  0.15128201  0.58938393     1.11830
O1938       O  0.44747558  0.12848939  0.67659781    -0.96400
Zr1939     Zr  0.48638305  0.16478547  0.65810112     1.88940
O1940       O  0.51765776  0.21811924  0.59275018    -0.73050
O1941       O  0.54174124  0.08856847  0.62218794    -0.52310
O1942       O  0.47989312  0.12683172  0.61463578    -0.96990
O1943       O  0.43599291  0.18710922  0.66761620    -0.54210
O1944       O  0.47315425  0.19663510  0.61068649    -0.73570
C1945       C  0.48831625  0.21424311  0.59121365     0.98770
O1946       O  0.60593088  0.23037350  0.61123660    -0.62390
O1947       O  0.53870542  0.27292880  0.74765021    -0.57190
O1948       O  0.56040741  0.25935493  0.62733589    -0.93870
O1949       O  0.56091756  0.25362834  0.68042695    -0.92300
O1950       O  0.60891934  0.22673124  0.75948090    -0.92660
O1951       O  0.64326997  0.21987251  0.69842468    -0.91440
C1952       C  0.55187034  0.26844615  0.65540730     1.17620
H1953       H  0.55702916  0.20281226  0.76867106     0.33560
H1954       H  0.61228042  0.16990455  0.65185558     0.44410
H1955       H  0.49976435  0.22848427  0.65039920     0.37940
H1956       H  0.50688429  0.11090810  0.69011453     0.34420
H1957       H  0.66303897  0.16804666  0.73415543     0.26210
H1958       H  0.55635889  0.07135198  0.62015602     0.32150
H1959       H  0.46315206  0.13492771  0.60063635     0.38060
H1960       H  0.63070546  0.23291087  0.75826055     0.32510
H1961       H  0.53790307  0.26599106  0.77089860     0.31390
H1962       H  0.45964053  0.24310167  0.70905743     0.33070
H1963       H  0.42369663  0.18141208  0.64800821     0.32040
H1964       H  0.64324460  0.21740209  0.67415219     0.36040
H1965       H  0.61387097  0.24240992  0.63009831     0.28770
H1966       H  0.50272093  0.10641439  0.79334434     0.33010
H1967       H  0.43431200  0.12452527  0.65715595     0.35860
H1968       H  0.56086519  0.27530366  0.74317062     0.28470
H1969       H  0.62145688  0.21410587  0.60858734     0.41340
H1970       H  0.62047975  0.09696918  0.68726902     0.31390
H1971       H  0.65081700  0.14420573  0.70838462     0.39010
H1972       H  0.43910283  0.20946289  0.66531972     0.30860
H1973       H  0.52412146  0.07983815  0.63436601     0.30920
H1974       H  0.48151203  0.10384766  0.76208905     0.31190
Zr1975     Zr  0.49081193  0.42176465  0.74310698     2.17510
O1976       O  0.52906363  0.45038768  0.77428685    -0.51170
O1977       O  0.45137420  0.41889996  0.78582110    -0.74370
O1978       O  0.47879555  0.47666861  0.74397049    -0.81160
O1979       O  0.52848000  0.34131671  0.76193555    -0.82900
O1980       O  0.45816960  0.49105558  0.69445775    -0.78530
O1981       O  0.52239137  0.38930468  0.78272771    -0.90160
O1982       O  0.40864432  0.41642547  0.75522590    -0.76120
O1983       O  0.44267683  0.42761993  0.71498120    -0.85610
O1984       O  0.46779148  0.37255872  0.74234906    -0.85300
O1985       O  0.49990998  0.44128078  0.68762883    -0.72060
O1986       O  0.52441632  0.39130674  0.71036539    -0.84200
Zr1987     Zr  0.46200802  0.36694144  0.62772996     2.26420
Zr1988     Zr  0.45101003  0.44629193  0.65995287     2.06270
Zr1989     Zr  0.50100666  0.34178022  0.70987986     2.10050
Zr1990     Zr  0.41970208  0.37840476  0.71460836     1.78760
O1991       O  0.55375653  0.32434023  0.70151958    -0.93000
O1992       O  0.36716724  0.39557299  0.70591638    -0.40810
O1993       O  0.45280371  0.34718755  0.68270852    -0.77440
O1994       O  0.42735339  0.39689762  0.65996732    -0.96130
O1995       O  0.48511551  0.41632224  0.62697895    -0.89430
O1996       O  0.51038061  0.36067769  0.65625897    -0.92270
C1997       C  0.42213232  0.41725530  0.78295886     1.01480
C1998       C  0.53318153  0.36140013  0.78438082     1.14410
C1999       C  0.46797418  0.49674878  0.72367887     1.05190
O2000       O  0.40504802  0.47755287  0.66400495    -0.94430
O2001       O  0.41535572  0.43765605  0.61308570    -0.90170
O2002       O  0.43543934  0.39665972  0.58654656    -0.83320
C2003       C  0.41546153  0.41790739  0.58939699     1.11830
O2004       O  0.56922054  0.44875309  0.67388832    -0.96400
Zr2005     Zr  0.53308403  0.40989190  0.65492648     1.88940
O2006       O  0.50481063  0.35480173  0.59020979    -0.73050
O2007       O  0.47393714  0.48182393  0.62076341    -0.52310
O2008       O  0.53731853  0.44772057  0.61093352    -0.96990
O2009       O  0.58507895  0.39155018  0.66452995    -0.54210
O2010       O  0.54851859  0.37802373  0.60811042    -0.73570
C2011       C  0.53409634  0.35910536  0.58939211     0.98770
O2012       O  0.41661572  0.33881180  0.60950254    -0.62390
O2013       O  0.48281623  0.29799365  0.74157966    -0.57190
O2014       O  0.46342482  0.31444287  0.61339792    -0.93870
O2015       O  0.46983765  0.31713351  0.66642371    -0.92300
O2016       O  0.41290380  0.34145865  0.75926822    -0.92660
O2017       O  0.38226878  0.34049393  0.69653051    -0.91440
C2018       C  0.47692234  0.30476849  0.63870913     1.17620
H2019       H  0.46568371  0.36424792  0.76432894     0.33560
H2020       H  0.40722965  0.39685196  0.65012663     0.44410
H2021       H  0.52389824  0.34556180  0.64717209     0.37940
H2022       H  0.50952125  0.46115567  0.68914562     0.34420
H2023       H  0.35717768  0.39385636  0.72776398     0.26210
H2024       H  0.45841499  0.49814865  0.61802026     0.32150
H2025       H  0.55486504  0.44075993  0.59743326     0.38060
H2026       H  0.39088805  0.33603103  0.75917440     0.32510
H2027       H  0.48456298  0.30395653  0.76506073     0.31390
H2028       H  0.56679616  0.34027599  0.71175313     0.33070
H2029       H  0.59684704  0.39812418  0.64487400     0.32040
H2030       H  0.37929917  0.34456537  0.67271102     0.36040
H2031       H  0.41074058  0.32544843  0.62823889     0.28770
H2032       H  0.51739146  0.46190503  0.79112777     0.33010
H2033       H  0.58185454  0.45410580  0.65444022     0.35860
H2034       H  0.46044521  0.29784568  0.73753752     0.28470
H2035       H  0.40006248  0.35419142  0.60910725     0.41340
H2036       H  0.39471386  0.47016969  0.68424697     0.31390
H2037       H  0.36886584  0.41787676  0.70187403     0.39010
H2038       H  0.58369840  0.36901588  0.66236560     0.30860
H2039       H  0.49079448  0.49173378  0.63316059     0.30920
H2040       H  0.53683366  0.46616773  0.75883667     0.31190
Zr2041     Zr  0.14940797  0.29999698  0.86858297     2.17510
O2042       O  0.17831590  0.26491512  0.90359435    -0.51170
O2043       O  0.14516527  0.33993644  0.91075733    -0.74370
O2044       O  0.20418732  0.31185753  0.86904790    -0.81160
O2045       O  0.07057026  0.25628605  0.88398293    -0.82900
O2046       O  0.21887477  0.33386123  0.82033904    -0.78530
O2047       O  0.11767024  0.26504348  0.90598595    -0.90160
O2048       O  0.14245564  0.38279180  0.88024099    -0.76120
O2049       O  0.15496786  0.34810881  0.84006519    -0.85610
O2050       O  0.10011627  0.32289697  0.86744320    -0.85300
O2051       O  0.17011880  0.29133123  0.81348333    -0.72060
O2052       O  0.12042650  0.26497560  0.83593694    -0.84200
Zr2053     Zr  0.09590619  0.32702695  0.75292393     2.26420
Zr2054     Zr  0.17454692  0.34025734  0.78530337     2.06270
Zr2055     Zr  0.07072463  0.28807463  0.83555515     2.10050
Zr2056     Zr  0.10558561  0.37053546  0.83880708     1.78760
O2057       O  0.05367087  0.23562059  0.82647557    -0.93000
O2058       O  0.12118861  0.42355447  0.83009857    -0.40810
O2059       O  0.07534477  0.33628920  0.80725077    -0.77440
O2060       O  0.12508235  0.36307987  0.78463942    -0.96130
O2061       O  0.14561296  0.30499464  0.75265917    -0.89430
O2062       O  0.09144215  0.27971359  0.78192161    -0.92270
C2063       C  0.14332263  0.36919083  0.90791733     1.01480
C2064       C  0.09056049  0.25212906  0.90654446     1.14410
C2065       C  0.22429883  0.32336360  0.84930907     1.05190
O2066       O  0.20371603  0.38751083  0.79090985    -0.94430
O2067       O  0.16707463  0.37485948  0.73678432    -0.90170
O2068       O  0.11822004  0.36685548  0.71938349    -0.83320
C2069       C  0.14392664  0.38088977  0.71782842     1.11830
O2070       O  0.17998081  0.22211983  0.79993963    -0.96400
Zr2071     Zr  0.14013225  0.25696486  0.78069485     1.88940
O2072       O  0.08708529  0.28452312  0.71446512    -0.73050
O2073       O  0.21162772  0.31831950  0.74728239    -0.52310
O2074       O  0.17852661  0.25302188  0.73734242    -0.96990
O2075       O  0.12164244  0.20516243  0.79117431    -0.54210
O2076       O  0.10869794  0.24052178  0.73343689    -0.73570
C2077       C  0.09085637  0.25528029  0.71374491     0.98770
O2078       O  0.06649190  0.35028822  0.70852230    -0.62390
O2079       O  0.03025674  0.30905709  0.87019066    -0.57190
O2080       O  0.04512104  0.33248748  0.77250194    -0.93870
O2081       O  0.02642339  0.29514353  0.80184756    -0.92300
O2082       O  0.06814926  0.37831121  0.88264124    -0.92660
O2083       O  0.06722002  0.40595214  0.81756869    -0.91440
C2084       C  0.03043453  0.30763220  0.77386912     1.17620
H2085       H  0.09176940  0.32515876  0.88936113     0.33560
H2086       H  0.12501213  0.38355044  0.77574976     0.44410
H2087       H  0.07729122  0.26576670  0.77230848     0.37940
H2088       H  0.19012311  0.28209003  0.81536049     0.34420
H2089       H  0.11845454  0.43364483  0.85176097     0.26210
H2090       H  0.22797843  0.33397876  0.74565178     0.32150
H2091       H  0.17169184  0.23559177  0.72356705     0.38060
H2092       H  0.06277708  0.40031311  0.88169458     0.32510
H2093       H  0.03843552  0.30879790  0.89297702     0.31390
H2094       H  0.03120275  0.23658289  0.82431872     0.33070
H2095       H  0.12714029  0.19334532  0.77120216     0.32040
H2096       H  0.06610420  0.40145811  0.79365272     0.36040
H2097       H  0.05373857  0.33360326  0.69943022     0.28770
H2098       H  0.18962746  0.27804080  0.91936592     0.33010
H2099       H  0.18388470  0.20797438  0.78134059     0.35860
H2100       H  0.02931170  0.33102579  0.86422903     0.28470
H2101       H  0.05186635  0.36434523  0.71938342     0.41340
H2102       H  0.19610479  0.39678811  0.81161294     0.31390
H2103       H  0.14365192  0.42264936  0.82693067     0.39010
H2104       H  0.09904477  0.20681352  0.79025674     0.30860
H2105       H  0.22113381  0.30126803  0.75973324     0.30920
H2106       H  0.19423701  0.25598215  0.88913331     0.31190
Zr2107     Zr  0.87185164  0.27066653  0.86805464     2.17510
O2108       O  0.84626663  0.30663498  0.90479739    -0.51170
O2109       O  0.87508649  0.22918456  0.90845617    -0.74370
O2110       O  0.81613859  0.26134051  0.87035984    -0.81160
O2111       O  0.95307441  0.30965811  0.88175211    -0.82900
O2112       O  0.79902626  0.24298666  0.82082387    -0.78530
O2113       O  0.90735812  0.30015962  0.90671697    -0.90160
O2114       O  0.88200685  0.18529568  0.87972572    -0.76120
O2115       O  0.86285960  0.22413498  0.83783833    -0.85610
O2116       O  0.92014876  0.24639203  0.86264384    -0.85300
O2117       O  0.84955593  0.28316777  0.81471058    -0.72060
O2118       O  0.90190975  0.30568916  0.83625340    -0.84200
Zr2119     Zr  0.91807664  0.24951111  0.74930204     2.26420
Zr2120     Zr  0.84180004  0.23585453  0.78424514     2.06270
Zr2121     Zr  0.95032778  0.28049557  0.83036209     2.10050
Zr2122     Zr  0.91136141  0.20029097  0.83274928     1.78760
O2123       O  0.97766897  0.32791351  0.81861249    -0.93000
O2124       O  0.88942062  0.15049669  0.81926128    -0.40810
O2125       O  0.94124435  0.23467835  0.80066860    -0.77440
O2126       O  0.89043764  0.21202392  0.78015699    -0.96130
O2127       O  0.86959821  0.27295979  0.75304494    -0.89430
O2128       O  0.92841062  0.29516941  0.77936987    -0.92270
C2129       C  0.87800647  0.19994709  0.90651586     1.01480
C2130       C  0.93487689  0.31213795  0.90648312     1.14410
C2131       C  0.79486896  0.25205867  0.85050319     1.05190
O2132       O  0.81086402  0.18960219  0.78863918    -0.94430
O2133       O  0.84981395  0.20300900  0.73423698    -0.90170
O2134       O  0.88849606  0.22610115  0.70648211    -0.83320
C2135       C  0.86854289  0.20491752  0.70951778     1.11830
O2136       O  0.84504691  0.35455102  0.81039163    -0.96400
Zr2137     Zr  0.87976415  0.31866047  0.78352711     1.88940
O2138       O  0.92728599  0.29175544  0.71030517    -0.73050
O2139       O  0.80401104  0.25873268  0.74758912    -0.52310
O2140       O  0.83761492  0.32838779  0.74552014    -0.96990
O2141       O  0.90198597  0.36886790  0.79440745    -0.54210
O2142       O  0.90661624  0.33456320  0.73322159    -0.73570
C2143       C  0.92255514  0.32090364  0.71100678     0.98770
O2144       O  0.94460023  0.20497403  0.72674217    -0.62390
O2145       O  0.99111831  0.25944310  0.86472535    -0.57190
O2146       O  0.96895197  0.25924116  0.73885026    -0.93870
O2147       O  0.98549908  0.25471495  0.79158135    -0.92300
O2148       O  0.95173308  0.18840472  0.87233027    -0.92660
O2149       O  0.94858259  0.16413397  0.81080603    -0.91440
C2150       C  0.98973121  0.25615845  0.76009684     1.17620
H2151       H  0.92947391  0.24268144  0.88389866     0.33560
H2152       H  0.89019079  0.19257707  0.76894069     0.44410
H2153       H  0.94340286  0.30808093  0.76877180     0.37940
H2154       H  0.83006789  0.29311348  0.81803529     0.34420
H2155       H  0.89471845  0.13718808  0.83822780     0.26210
H2156       H  0.78708922  0.24363029  0.74689381     0.32150
H2157       H  0.84402617  0.34668917  0.73283008     0.38060
H2158       H  0.94957984  0.16622126  0.87683234     0.32510
H2159       H  0.98460997  0.26227374  0.88790447     0.31390
H2160       H  0.96456205  0.34430127  0.82778429     0.33070
H2161       H  0.89504508  0.38192491  0.77585999     0.32040
H2162       H  0.94435419  0.16341903  0.78682446     0.36040
H2163       H  0.96221693  0.20113838  0.74156360     0.28770
H2164       H  0.83486690  0.29380871  0.92079094     0.33010
H2165       H  0.83921393  0.36960374  0.79321450     0.35860
H2166       H  0.98964097  0.23705512  0.86132151     0.28470
H2167       H  0.93091782  0.18740303  0.73104008     0.41340
H2168       H  0.81605996  0.18098460  0.81054764     0.31390
H2169       H  0.86700680  0.15345932  0.82100981     0.39010
H2170       H  0.92420473  0.36616538  0.79056510     0.30860
H2171       H  0.79561156  0.27619556  0.76023175     0.30920
H2172       H  0.83029865  0.31659333  0.89113850     0.31190
Zr2173     Zr  0.99007296  0.14466425  0.50677937     2.17510
O2174       O  0.02076098  0.11380108  0.46917178    -0.51170
O2175       O  0.94822537  0.15075881  0.96656844    -0.74370
O2176       O  0.97616031  0.09038913  0.50903471    -0.81160
O2177       O  0.03797760  0.22086338  0.98838668    -0.82900
O2178       O  0.95497834  0.07724294  0.55866864    -0.78530
O2179       O  0.02455012  0.17491665  0.96641915    -0.90160
O2180       O  0.90595634  0.16215133  0.99633224    -0.76120
O2181       O  0.94291839  0.14251282  0.53759592    -0.85610
O2182       O  0.97099678  0.19526332  0.50929141    -0.85300
O2183       O  0.99939269  0.12323359  0.56140621    -0.72060
O2184       O  0.02886983  0.17075123  0.53706382    -0.84200
Zr2185     Zr  0.97391055  0.20032703  0.62439421     2.26420
Zr2186     Zr  0.95178494  0.12288594  0.59235609     2.06270
Zr2187     Zr  0.00952413  0.22195598  0.53900996     2.10050
Zr2188     Zr  0.92464529  0.19340141  0.54046982     1.78760
O2189       O  0.06291929  0.23758738  0.54408452    -0.93000
O2190       O  0.87297308  0.17757751  0.55566360    -0.40810
O2191       O  0.96300070  0.22033780  0.57009686    -0.77440
O2192       O  0.93380308  0.17436286  0.59453477    -0.96130
O2193       O  0.99117668  0.14868565  0.62279860    -0.89430
O2194       O  0.01978591  0.20055373  0.59246261    -0.92270
C2195       C  0.91941850  0.15628487  0.96922447     1.01480
C2196       C  0.03920676  0.20116375  0.96528157     1.14410
C2197       C  0.96464242  0.07093488  0.52958226     1.05190
O2198       O  0.90240466  0.09723683  0.58795851    -0.94430
O2199       O  0.91847021  0.13377765  0.64097247    -0.90170
O2200       O  0.93353726  0.18047152  0.65989288    -0.83320
C2201       C  0.91598234  0.15688264  0.66080885     1.11830
O2202       O  0.06958662  0.10983998  0.56747259    -0.96400
Zr2203     Zr  0.03776212  0.14985293  0.59157790     1.88940
O2204       O  0.01962632  0.20479288  0.66050354    -0.73050
O2205       O  0.97134241  0.08526966  0.63140105    -0.52310
O2206       O  0.04204122  0.10718640  0.63008244    -0.96990
O2207       O  0.08948402  0.16785957  0.57970941    -0.54210
O2208       O  0.05780614  0.17435546  0.64121082    -0.73570
C2209       C  0.04736360  0.19448498  0.66129115     0.98770
O2210       O  0.96071095  0.23940078  0.66467097    -0.62390
O2211       O  0.98608551  0.26196924  0.50532831    -0.57190
O2212       O  0.97014469  0.25061103  0.60274379    -0.93870
O2213       O  0.00612106  0.26759845  0.57064549    -0.92300
O2214       O  0.91478104  0.23207961  0.49838220    -0.92660
O2215       O  0.89380993  0.23550847  0.56154783    -0.91440
C2216       C  0.99557727  0.26404204  0.59950040     1.17620
H2217       H  0.96780460  0.20384667  0.98714791     0.33560
H2218       H  0.91385864  0.17676190  0.60427781     0.44410
H2219       H  0.03573424  0.21258116  0.60203583     0.37940
H2220       H  0.00728182  0.10268360  0.55947884     0.34420
H2221       H  0.86007106  0.18323727  0.53649627     0.26210
H2222       H  0.95406112  0.07090280  0.63476988     0.32150
H2223       H  0.06084447  0.11145660  0.64296340     0.38060
H2224       H  0.89223189  0.23247479  0.49583956     0.32510
H2225       H  0.98557620  0.25410371  0.48244249     0.31390
H2226       H  0.06332746  0.25993239  0.54046587     0.33070
H2227       H  0.10220762  0.16035951  0.59827005     0.32040
H2228       H  0.89762994  0.23543054  0.58563728     0.36040
H2229       H  0.93912669  0.23601537  0.67104623     0.28770
H2230       H  0.00543888  0.10292327  0.95445475     0.33010
H2231       H  0.08574854  0.10553901  0.58399285     0.35860
H2232       H  0.96429118  0.26273991  0.01215594     0.28470
H2233       H  0.97310171  0.23411422  0.68422877     0.41340
H2234       H  0.89555945  0.10124443  0.56506018     0.31390
H2235       H  0.87352893  0.15491720  0.55532673     0.39010
H2236       H  0.08860146  0.19031895  0.58287408     0.30860
H2237       H  0.98657670  0.07334221  0.61870799     0.30920
H2238       H  0.03028638  0.09774753  0.48307181     0.31190
Zr2239     Zr  0.03081075  0.42294854  0.50685869     2.17510
O2240       O  0.99367956  0.44999942  0.47259816    -0.51170
O2241       O  0.07018682  0.41887645  0.96435847    -0.74370
O2242       O  0.04138494  0.47815962  0.50484185    -0.81160
O2243       O  0.99251101  0.34188347  0.99115660    -0.82900
O2244       O  0.05891044  0.49473819  0.55490645    -0.78530
O2245       O  0.99891380  0.38924022  0.96861250    -0.90160
O2246       O  0.11410593  0.41705201  0.99348478    -0.76120
O2247       O  0.07771054  0.43199457  0.53660853    -0.85610
O2248       O  0.05656954  0.37532842  0.51013635    -0.85300
O2249       O  0.01871096  0.44338337  0.56110767    -0.72060
O2250       O  0.99732110  0.39128872  0.53862742    -0.84200
Zr2251     Zr  0.05597117  0.37363692  0.62397998     2.26420
Zr2252     Zr  0.06638408  0.45144141  0.59076715     2.06270
Zr2253     Zr  0.02384308  0.34345681  0.54182467     2.10050
Zr2254     Zr  0.10295967  0.38400104  0.53976122     1.78760
O2255       O  0.97623012  0.31590173  0.55179556    -0.93000
O2256       O  0.15413588  0.40488724  0.54835040    -0.40810
O2257       O  0.06991610  0.35251211  0.57149735    -0.77440
O2258       O  0.09183548  0.40344713  0.59322414    -0.96130
O2259       O  0.03112395  0.42156684  0.62227573    -0.89430
O2260       O  0.01008802  0.36298403  0.59424267    -0.92270
C2261       C  0.09948705  0.41691287  0.96635949     1.01480
C2262       C  0.98773194  0.36141362  0.96795498     1.14410
C2263       C  0.05044984  0.49914038  0.52503606     1.05190
O2264       O  0.11207423  0.48324321  0.58681565    -0.94430
O2265       O  0.09961610  0.44491506  0.64045453    -0.90170
O2266       O  0.08160922  0.40235113  0.66615539    -0.83320
C2267       C  0.09991845  0.42511407  0.66424671     1.11830
O2268       O  0.94823542  0.44758449  0.56997499    -0.96400
Zr2269     Zr  0.98503789  0.41112612  0.59253697     1.88940
O2270       O  0.01432899  0.36432473  0.66370553    -0.73050
O2271       O  0.04221538  0.48804563  0.62770064    -0.52310
O2272       O  0.97757112  0.44986346  0.63498085    -0.96990
O2273       O  0.93406996  0.39073021  0.58150691    -0.54210
O2274       O  0.96979320  0.38009769  0.64024296    -0.73570
C2275       C  0.98483766  0.36570894  0.66272459     0.98770
O2276       O  0.09970072  0.34683120  0.64851973    -0.62390
O2277       O  0.04751577  0.30649274  0.50464537    -0.57190
O2278       O  0.04913666  0.32154174  0.63153886    -0.93870
O2279       O  0.04973151  0.30622446  0.57796863    -0.92300
O2280       O  0.11153918  0.34234437  0.50075382    -0.92660
O2281       O  0.14200321  0.35006158  0.56234102    -0.91440
C2282       C  0.05034396  0.30132510  0.60936380     1.17620
H2283       H  0.05995924  0.36676469  0.48850308     0.33560
H2284       H  0.11136374  0.40430520  0.60433583     0.44410
H2285       H  0.99805792  0.34702680  0.60440185     0.37940
H2286       H  0.00838895  0.46277973  0.55845159     0.34420
H2287       H  0.16527287  0.40074849  0.52755023     0.26210
H2288       H  0.05701624  0.50519203  0.62912405     0.32150
H2289       H  0.96001226  0.44235156  0.64815576     0.38060
H2290       H  0.13393867  0.33888894  0.50055540     0.32510
H2291       H  0.03352593  0.28880614  0.50416011     0.31390
H2292       H  0.95983157  0.33063507  0.54612515     0.33070
H2293       H  0.92165036  0.39669636  0.60089486     0.32040
H2294       H  0.13885110  0.35076899  0.58650512     0.36040
H2295       H  0.10502125  0.33010479  0.63309240     0.28770
H2296       H  0.00570538  0.46196120  0.95624559     0.33010
H2297       H  0.93526688  0.45390463  0.58879582     0.35860
H2298       H  0.04537542  0.31548201  0.98145903     0.28470
H2299       H  0.11725089  0.36103588  0.64639949     0.41340
H2300       H  0.12247835  0.47612380  0.56653565     0.31390
H2301       H  0.15127499  0.42737129  0.54859385     0.39010
H2302       H  0.93634246  0.36826381  0.58363149     0.30860
H2303       H  0.02482987  0.49642569  0.61485391     0.30920
H2304       H  0.98476682  0.46592174  0.48706930     0.31190
C2305       C  0.01701717  0.26510283  0.62737608    -0.16270
C2306       C  0.04646685  0.27054822  0.62052272    -0.31440
H2307       H  0.00752064  0.27514413  0.64964446     0.12750
H2308       H  0.05839697  0.25510381  0.60419720     0.13330
C2309       C  0.86970910  0.18127989  0.68319921    -0.16270
C2310       C  0.89072201  0.15841014  0.68550675    -0.31440
H2311       H  0.86556460  0.19036657  0.65861353     0.12750
H2312       H  0.89646002  0.14987188  0.70991354     0.13330
C2313       C  0.90147152  0.15974479  0.93898431    -0.16270
C2314       C  0.88061452  0.18249076  0.93719960    -0.31440
H2315       H  0.91122066  0.15027007  0.91657314     0.12750
H2316       H  0.87256970  0.19352492  0.95956544     0.13330
C2317       C  0.93767656  0.34034707  0.68564721    -0.16270
C2318       C  0.96763319  0.34804672  0.68828755    -0.31440
H2319       H  0.92406530  0.34869598  0.66509706     0.12750
H2320       H  0.98058226  0.33927692  0.70915261     0.13330
C2321       C  0.94755629  0.32798835  0.93738643    -0.16270
C2322       C  0.97004515  0.35026572  0.93752722    -0.31440
H2323       H  0.93911735  0.31980057  0.96099630     0.12750
H2324       H  0.97694315  0.35992277  0.91397799     0.13330
C2325       C  0.12268529  0.42678489  0.69138243    -0.16270
C2326       C  0.14541352  0.40555021  0.69248466    -0.31440
H2327       H  0.11250527  0.43300411  0.71489427     0.12750
H2328       H  0.15577393  0.39863530  0.66931066     0.13330
C2329       C  0.13809375  0.38770207  0.93739861    -0.16270
C2330       C  0.11685788  0.41014293  0.93645980    -0.31440
H2331       H  0.14572040  0.37848605  0.96087273     0.12750
H2332       H  0.10720179  0.41745653  0.91305933     0.13330
C2333       C  0.05708514  0.21138065  0.93497711    -0.16270
C2334       C  0.08012854  0.23310937  0.93594691    -0.31440
H2335       H  0.04883272  0.20355953  0.91115319     0.12750
H2336       H  0.08949782  0.23951408  0.95979045     0.13330
C2337       C  0.06968144  0.20803582  0.68521019    -0.16270
C2338       C  0.06994726  0.23843149  0.69109266    -0.31440
H2339       H  0.08786075  0.19375488  0.69509381     0.12750
H2340       H  0.05197556  0.25213650  0.68033351     0.13330
C2341       C  0.02738442  0.28870156  0.74406311    -0.16270
C2342       C  0.02029644  0.25919297  0.74803110    -0.31440
H2343       H  0.01800254  0.30045940  0.72275204     0.12750
H2344       H  0.03528237  0.24482424  0.76256193     0.13330
C2345       C  0.50490639  0.28830988  0.63366748    -0.16270
C2346       C  0.52382535  0.28496326  0.65871651    -0.31440
H2347       H  0.51080943  0.28073325  0.60893388     0.12750
H2348       H  0.51648358  0.29101375  0.68332087     0.13330
C2349       C  0.25647712  0.32389535  0.85981030    -0.16270
C2350       C  0.26459505  0.32199235  0.89156514    -0.31440
H2351       H  0.27395506  0.32656157  0.84092576     0.12750
H2352       H  0.24713401  0.32146288  0.91066394     0.13330
C2353       C  0.36905186  0.39574386  0.56551656    -0.16270
C2354       C  0.39102141  0.41771428  0.56388132    -0.31440
H2355       H  0.36216806  0.38815448  0.58993716     0.12750
H2356       H  0.39887231  0.42424252  0.53943019     0.13330
C2357       C  0.38138288  0.39043215  0.81136197    -0.16270
C2358       C  0.40355987  0.41195973  0.81240396    -0.31440
H2359       H  0.37392335  0.38114323  0.78786742     0.12750
H2360       H  0.41285656  0.41934393  0.83592279     0.13330
C2361       C  0.47087982  0.23313644  0.56692518    -0.16270
C2362       C  0.43994305  0.23335864  0.56453334    -0.31440
H2363       H  0.48385008  0.24847158  0.55123084     0.12750
H2364       H  0.42637347  0.21718633  0.57871826     0.13330
C2365       C  0.46535955  0.21799890  0.81377558    -0.16270
C2366       C  0.44340683  0.24049532  0.81161413    -0.31440
H2367       H  0.47158102  0.20931647  0.83798613     0.12750
H2368       H  0.43577047  0.24780562  0.78734621     0.13330
C2369       C  0.75459465  0.25038231  0.89305571    -0.16270
C2370       C  0.76272821  0.25229083  0.86136545    -0.31440
H2371       H  0.77214110  0.24821065  0.91196525     0.12750
H2372       H  0.74510880  0.25234313  0.84238171     0.13330
C2373       C  0.64571120  0.16942201  0.56059224    -0.16270
C2374       C  0.62245428  0.14887284  0.56189569    -0.31440
H2375       H  0.65641366  0.17629756  0.58362809     0.12750
H2376       H  0.61179630  0.14268471  0.53858474     0.13330
C2377       C  0.61350050  0.15770823  0.81700947    -0.16270
C2378       C  0.63494816  0.17998491  0.81564804    -0.31440
H2379       H  0.60396304  0.15075705  0.84056841     0.12750
H2380       H  0.64262270  0.18875345  0.79201362     0.13330
C2381       C  0.58180610  0.34142936  0.55985920    -0.16270
C2382       C  0.55209937  0.33782838  0.56836735    -0.31440
H2383       H  0.59370793  0.36228257  0.56689153     0.12750
H2384       H  0.54030494  0.31723108  0.56086560     0.13330
C2385       C  0.57275830  0.32806601  0.81449042    -0.16270
C2386       C  0.55050135  0.35042982  0.81484341    -0.31440
H2387       H  0.58149966  0.32054377  0.79077705     0.12750
H2388       H  0.54321661  0.35952182  0.83848506     0.13330
C2389       C  0.51320564  0.28248859  0.99454117    -0.16270
C2390       C  0.50861035  0.29945389  0.96814060    -0.31440
H2391       H  0.50591329  0.28991763  0.01886942     0.12750
H2392       H  0.51501385  0.29107579  0.94400264     0.13330
C2393       C  0.54739891  0.03937821  0.73268222    -0.16270
C2394       C  0.54884023  0.03097486  0.76441322    -0.31440
H2395       H  0.54772662  0.02205135  0.71345679     0.12750
H2396       H  0.55060003  0.04850114  0.78336281     0.13330
C2397       C  0.46579120  0.53777306  0.76543757    -0.16270
C2398       C  0.46742022  0.52919980  0.73375512    -0.31440
H2399       H  0.46352570  0.52043834  0.78456036     0.12750
H2400       H  0.46756818  0.54651335  0.71445866     0.13330
C2401       C  0.50680119  0.76803205  0.88080316    -0.16270
C2402       C  0.53686797  0.77280056  0.87757936    -0.31440
H2403       H  0.49473614  0.77972335  0.90055285     0.12750
H2404       H  0.55034806  0.75681690  0.86343193     0.13330
C2405       C  0.46417136  0.85476861  0.94123057    -0.16270
C2406       C  0.44690373  0.82995203  0.93370878    -0.31440
H2407       H  0.46689909  0.86163524  0.96682072     0.12750
H2408       H  0.44707218  0.82109438  0.90866205     0.13330
C2409       C  0.44522092  0.82786834  0.69250729    -0.16270
C2410       C  0.46814653  0.84958182  0.69213279    -0.31440
H2411       H  0.43610621  0.82041506  0.71610263     0.12750
H2412       H  0.47562258  0.85833085  0.66836922     0.13330
C2413       C  0.39100703  0.65081834  0.93508387    -0.16270
C2414       C  0.37006822  0.67375276  0.93566710    -0.31440
H2415       H  0.39843420  0.64136511  0.95856732     0.12750
H2416       H  0.36352277  0.68342592  0.91196478     0.13330
C2417       C  0.38120313  0.68050913  0.68692419    -0.16270
C2418       C  0.40259946  0.65824411  0.68780283    -0.31440
H2419       H  0.37295555  0.69063019  0.70970517     0.12750
H2420       H  0.41262969  0.64984928  0.66504085     0.13330
C2421       C  0.55842680  0.74245814  0.94622573    -0.16270
C2422       C  0.56193049  0.71289180  0.93701561    -0.31440
H2423       H  0.53830649  0.75477302  0.93811206     0.12750
H2424       H  0.58244665  0.70063958  0.94447332     0.13330
C2425       C  0.57975186  0.73474476  0.68892743    -0.16270
C2426       C  0.55642798  0.71352406  0.68710878    -0.31440
H2427       H  0.58986843  0.73966221  0.71282841     0.12750
H2428       H  0.54752971  0.70723000  0.66302246     0.13330
C2429       C  0.62401054  0.92591953  0.94107005    -0.16270
C2430       C  0.64516395  0.90309655  0.94151028    -0.31440
H2431       H  0.61520438  0.93320037  0.96486975     0.12750
H2432       H  0.65366030  0.89493316  0.91793023     0.13330
C2433       C  0.64073648  0.88643008  0.69117705    -0.16270
C2434       C  0.61939088  0.90879514  0.69056470    -0.31440
H2435       H  0.64753007  0.87622213  0.71448213     0.12750
H2436       H  0.61067738  0.91729769  0.66722960     0.13330
C2437       C  0.50690517  0.81394620  0.50771253    -0.16270
C2438       C  0.49845414  0.78487717  0.50126667    -0.31440
H2439       H  0.50626789  0.83009664  0.48754391     0.12750
H2440       H  0.49182895  0.78003230  0.47608784     0.13330
C2441       C  0.96682966  0.03059861  0.98804112    -0.16270
C2442       C  0.96371060  0.03852100  0.51984760    -0.31440
H2443       H  0.96749045  0.04820200  0.96904176     0.12750
H2444       H  0.96068946  0.02117729  0.53883690     0.13330
C2445       C  0.05616358  0.53931092  0.98298732    -0.16270
C2446       C  0.05067479  0.53118005  0.51413249    -0.31440
H2447       H  0.06013410  0.52190513  0.96431937     0.12750
H2448       H  0.04930979  0.54879195  0.53301635     0.13330
C2449       C  0.01010520  0.76781892  0.86927364    -0.16270
C2450       C  0.98061692  0.77439826  0.87347082    -0.31440
H2451       H  0.02203669  0.77847540  0.84874314     0.12750
H2452       H  0.96684084  0.75885092  0.88800249     0.13330
C2453       C  0.76442003  0.82261695  0.63676806    -0.16270
C2454       C  0.75560763  0.81905845  0.60531141    -0.31440
H2455       H  0.74724863  0.82638198  0.65574511     0.12750
H2456       H  0.77268939  0.81743464  0.58590579     0.13330
C2457       C  0.95082916  0.73861557  0.80821344    -0.16270
C2458       C  0.95090917  0.70843748  0.81545444    -0.31440
H2459       H  0.96929410  0.75231807  0.81792844     0.12750
H2460       H  0.93237046  0.69405970  0.80653372     0.13330
C2461       C  0.96512542  0.71434373  0.56080586    -0.16270
C2462       C  0.94233406  0.73612971  0.55983770    -0.31440
H2463       H  0.97232669  0.70550332  0.58463281     0.12750
H2464       H  0.93381859  0.74361614  0.53597708     0.13330
C2465       C  0.88969159  0.91091403  0.78961370    -0.16270
C2466       C  0.89011473  0.91655286  0.82216781    -0.31440
H2467       H  0.90710984  0.92205798  0.77468994     0.12750
H2468       H  0.87270534  0.90587058  0.83748618     0.13330
C2469       C  0.88174938  0.88615400  0.56040156    -0.16270
C2470       C  0.90279095  0.90877415  0.56193661    -0.31440
H2471       H  0.87478614  0.87691192  0.53670891     0.12750
H2472       H  0.91175301  0.91618687  0.58559758     0.13330
C2473       C  0.25688299  0.75259699  0.63946711    -0.16270
C2474       C  0.26516173  0.75047332  0.60780173    -0.31440
H2475       H  0.27440507  0.75315784  0.65854239     0.12750
H2476       H  0.24774321  0.74789609  0.58881756     0.13330
C2477       C  0.07099707  0.83055011  0.81325642    -0.16270
C2478       C  0.06112102  0.85975865  0.80936651    -0.31440
H2479       H  0.06316253  0.81769373  0.83462876     0.12750
H2480       H  0.06812964  0.87303547  0.78800035     0.13330
C2481       C  0.07358754  0.82771924  0.56320653    -0.16270
C2482       C  0.05098802  0.84971807  0.56337426    -0.31440
H2483       H  0.08293437  0.82075057  0.53956584     0.12750
H2484       H  0.04311041  0.85822032  0.58705293     0.13330
C2485       C  0.13894099  0.68304336  0.56196701    -0.16270
C2486       C  0.11763758  0.66060358  0.56180729    -0.31440
H2487       H  0.14655210  0.69324492  0.53895727     0.12750
H2488       H  0.10809675  0.65227124  0.58484933     0.13330
C2489       C  0.15066385  0.67703896  0.81571165    -0.16270
C2490       C  0.12900960  0.65468683  0.81447670    -0.31440
H2491       H  0.15604832  0.68607855  0.84001222     0.12750
H2492       H  0.12251131  0.64596377  0.79039397     0.13330
C2493       C  0.99276387  0.78506804  0.75526830    -0.16270
C2494       C  0.99801373  0.75522750  0.75023975    -0.31440
H2495       H  0.00255389  0.79574304  0.77708003     0.12750
H2496       H  0.98241137  0.74185987  0.73545733     0.13330
loop_ 
_geom_bond_atom_site_label_1 
_geom_bond_atom_site_label_2 
_geom_bond_distance 
_geom_bond_site_symmetry_2 
_ccdc_geom_bond_type 
Zr1           O2   2.438       .  S
Zr1           O3   2.445       .  S
Zr1           O4   2.450       .  S
Zr1           O7   2.535       .  S
Zr1           O9   2.404       .  S
Zr1          O10   2.374       .  S
Zr1          O11   2.433       .  S
Zr1          O12   2.390       .  S
O2           H58   0.990       .  S
O2           H66   0.990       .  S
O3           C23   1.284       .  A
O4           C25   1.290       .  A
O5          Zr15   2.435       .  S
O5           C24   1.283       .  A
O6          Zr14   2.419       .  S
O6           C25   1.282       .  A
O7           C24   1.306       .  A
O8          Zr16   2.389       .  S
O8           C23   1.269       .  A
O9          Zr14   2.399       .  S
O9          Zr16   2.367       .  S
O10         Zr15   2.378       .  S
O10         Zr16   2.403       .  S
O10          H45   0.966       .  S
O11         Zr14   2.418       .  S
O11         Zr31   2.397       .  S
O11          H48   0.966       .  S
O12         Zr15   2.390       .  S
O12         Zr31   2.418       .  S
Zr13         O38   2.454       .  S
Zr13         O32   2.477       .  S
Zr13         O40   2.378       .  S
Zr13         O28   2.409       .  S
Zr13         O19   2.416       .  S
Zr13         O20   2.401       .  S
Zr13         O21   2.379       .  S
Zr13         O22   2.414       .  S
Zr14         O33   2.434       .  S
Zr14         O26   2.434       .  S
Zr14         O27   2.473       .  S
Zr14         O20   2.389       .  S
Zr14         O21   2.394       .  S
Zr15         O17   2.439       .  S
Zr15         O39   2.437       .  S
Zr15         O41   2.419       .  S
Zr15         O19   2.385       .  S
Zr15         O22   2.384       .  S
Zr16         O42   2.441       .  S
Zr16         O43   2.438       .  S
Zr16         O18   2.438       .  S
Zr16         O19   2.351       .  S
Zr16         O20   2.391       .  S
O17          H54   0.990       .  S
O18          H49   0.990       .  S
O18          H63   0.990       .  S
O20          H46   0.965       .  S
O21         Zr31   2.393       .  S
O22         Zr31   2.370       .  S
O22          H47   0.961       .  S
C23        C1237   1.461       .  S
C24        C1233   1.524       .  S
C25        C1225   1.473       .  S
O26          H62   0.990       .  S
O27          C29   1.289       .  A
O28          C29   1.279       .  A
C29        C1241   1.479       .  S
O30         Zr31   2.440       .  S
O30          H59   0.990       .  S
Zr31         O34   2.437       .  S
Zr31         O35   2.438       .  S
Zr31         O36   2.445       .  S
O32          C37   1.292       .  A
O33          H50   0.990       .  S
O33          H65   0.990       .  S
O34          H51   0.990       .  S
O35          H55   0.990       .  S
O35          H64   0.990       .  S
O36          C37   1.285       .  A
C37        C1229   1.497       .  S
O38          H57   0.991       .  S
O38          H61   0.988       .  S
O39          H53   0.990       .  S
O39          H60   0.990       .  S
O40          C44   1.260       .  A
O41          C44   1.267       .  A
O42          H52   0.990       .  S
O43          H56   0.990       .  S
C44        C1246   1.427       .  S
Zr67         O68   2.438       .  S
Zr67         O69   2.446       .  S
Zr67         O70   2.454       .  S
Zr67         O73   2.534       .  S
Zr67         O75   2.401       .  S
Zr67         O76   2.369       .  S
Zr67         O77   2.431       .  S
Zr67         O78   2.387       .  S
O68         H124   0.990       .  S
O68         H132   0.990       .  S
O69          C89   1.284       .  A
O70          C91   1.290       .  A
O71         Zr81   2.430       .  S
O71          C90   1.282       .  A
O72         Zr80   2.421       .  S
O72          C91   1.283       .  A
O73          C90   1.306       .  A
O74         Zr82   2.387       .  S
O74          C89   1.270       .  A
O75         Zr80   2.403       .  S
O75         Zr82   2.373       .  S
O76         Zr81   2.377       .  S
O76         Zr82   2.387       .  S
O76         H111   0.966       .  S
O77         Zr80   2.420       .  S
O77         Zr97   2.397       .  S
O77         H114   0.965       .  S
O78         Zr81   2.389       .  S
O78         Zr97   2.410       .  S
Zr79        O104   2.449       .  S
Zr79         O98   2.488       .  S
Zr79        O106   2.368       .  S
Zr79         O94   2.440       .  S
Zr79         O85   2.438       .  S
Zr79         O86   2.399       .  S
Zr79         O87   2.381       .  S
Zr79         O88   2.430       .  S
Zr80         O99   2.433       .  S
Zr80         O92   2.434       .  S
Zr80         O93   2.469       .  S
Zr80         O86   2.404       .  S
Zr80         O87   2.395       .  S
Zr81         O83   2.448       .  S
Zr81        O105   2.432       .  S
Zr81        O107   2.469       .  S
Zr81         O85   2.380       .  S
Zr81         O88   2.369       .  S
Zr82        O108   2.441       .  S
Zr82        O109   2.438       .  S
Zr82         O84   2.439       .  S
Zr82         O85   2.376       .  S
Zr82         O86   2.370       .  S
O83         H120   0.990       .  S
O84         H115   0.990       .  S
O84         H129   0.990       .  S
O86         H112   0.963       .  S
O87         Zr97   2.398       .  S
O88         Zr97   2.368       .  S
O88         H113   0.963       .  S
C89        C1221   1.460       .  S
C90        C1214   1.519       .  S
C91        C1205   1.474       .  S
O92         H128   0.990       .  S
O93          C95   1.287       .  A
O94          C95   1.280       .  A
C95        C1217   1.489       .  S
O96         Zr97   2.440       .  S
O96         H125   0.990       .  S
Zr97        O100   2.436       .  S
Zr97        O101   2.438       .  S
Zr97        O102   2.439       .  S
O98         C103   1.296       .  A
O99         H116   0.990       .  S
O99         H131   0.990       .  S
O100        H117   0.990       .  S
O101        H121   0.990       .  S
O101        H130   0.990       .  S
O102        C103   1.284       .  A
C103       C1209   1.488       .  S
O104        H123   0.991       .  S
O104        H127   0.986       .  S
O105        H119   0.990       .  S
O105        H126   0.990       .  S
O106        C110   1.258       .  A
O107        C110   1.284       .  A
O108        H118   0.990       .  S
O109        H122   0.990       .  S
C110       C1245   1.429   1_655  S
Zr133       O134   2.439   1_455  S
Zr133       O136   2.447       .  S
Zr133      O1383   2.450       .  S
Zr133      O1387   2.546   1_455  S
Zr133       O141   2.404       .  S
Zr133       O142   2.371       .  S
Zr133       O143   2.436       .  S
Zr133       O144   2.386   1_455  S
O134        H198   0.990       .  S
O134       H1438   0.990   1_655  S
O135      Zr1381   2.451   1_554  S
O135        C155   1.286       .  A
O136        C157   1.290       .  A
O137      Zr1395   2.397   1_654  S
O137        C156   1.276       .  A
O138       Zr146   2.417       .  S
O138        C157   1.282       .  A
O139      Zr1381   2.556   1_654  S
O139        C156   1.310       .  A
O140      Zr1396   2.387   1_554  S
O140        C155   1.271       .  A
O141       Zr146   2.403       .  S
O141       Zr148   2.374       .  S
O142       Zr147   2.369       .  S
O142       Zr148   2.388       .  S
O142       H1425   0.966       .  S
O143       Zr146   2.423       .  S
O143       Zr163   2.392   1_455  S
O143        H180   0.965       .  S
O144       Zr147   2.393   1_655  S
O144       Zr163   2.424       .  S
Zr145       O170   2.428       .  S
Zr145       O164   2.459       .  S
Zr145       O172   2.381       .  S
Zr145       O160   2.406       .  S
Zr145       O151   2.411       .  S
Zr145       O152   2.394       .  S
Zr145       O153   2.377       .  S
Zr145       O154   2.377       .  S
Zr146       O165   2.434       .  S
Zr146       O158   2.435       .  S
Zr146       O159   2.481       .  S
Zr146       O152   2.385       .  S
Zr146       O153   2.393       .  S
Zr147       O149   2.437   1_455  S
Zr147       O171   2.439       .  S
Zr147       O173   2.396       .  S
Zr147      O1385   2.409   1_455  S
Zr147       O151   2.399       .  S
Zr147       O154   2.379       .  S
Zr148       O174   2.440       .  S
Zr148       O175   2.437       .  S
Zr148       O150   2.437       .  S
Zr148      O1388   2.387       .  S
Zr148       O151   2.379       .  S
Zr148       O152   2.376       .  S
O149        H186   0.986       .  S
O150        H181   0.990       .  S
O150        H195   0.990       .  S
O152        H178   0.964       .  S
O153       Zr163   2.391   1_455  S
O154       Zr163   2.333   1_455  S
O154        H179   0.948   1_455  S
C155       C1238   1.463       .  S
C156       C1213   1.521       .  S
C157       C1197   1.470       .  S
O158        H194   0.990       .  S
O159        C161   1.292       .  A
O160        C161   1.279       .  A
C161       C1242   1.481       .  S
O162       Zr163   2.438       .  S
O162        H191   0.990       .  S
Zr163       O166   2.436       .  S
Zr163       O167   2.437       .  S
Zr163       O168   2.471       .  S
O164        C169   1.290   1_455  A
O165        H182   0.990       .  S
O165        H197   0.990       .  S
O166        H183   0.990       .  S
O167        H187   0.990       .  S
O167        H196   0.990       .  S
O168        C169   1.290       .  A
C169       C1210   1.492       .  S
O170        H189   0.986       .  S
O170        H193   0.991       .  S
O171        H185   0.990       .  S
O171       H1440   0.989       .  S
O172        C176   1.262       .  A
O173        C176   1.272       .  A
O174        H184   0.990       .  S
O175        H188   0.990       .  S
C176       C1201   1.477       .  S
H177       O1390   0.966   1_554  S
H190       O1382   0.990       .  S
H192       O1419   0.989       .  S
Zr199       O200   2.438   1_655  S
Zr199       O202   2.454       .  S
Zr199      O1449   2.445       .  S
Zr199      O1453   2.544   1_655  S
Zr199       O207   2.406       .  S
Zr199       O208   2.368       .  S
Zr199       O209   2.432   1_655  S
Zr199       O210   2.391   1_655  S
O200        H264   0.990       .  S
O200       H1504   0.990       .  S
O201      Zr1447   2.443   1_554  S
O201        C221   1.285       .  A
O202        C223   1.290       .  A
O203      Zr1461   2.445   1_554  S
O203        C222   1.285       .  A
O204       Zr212   2.403       .  S
O204        C223   1.279       .  A
O205      Zr1447   2.535   1_454  S
O205        C222   1.306       .  A
O206      Zr1462   2.387   1_554  S
O206        C221   1.271       .  A
O207       Zr212   2.405       .  S
O207       Zr214   2.372       .  S
O208       Zr213   2.373   1_655  S
O208       Zr214   2.375       .  S
O208       H1491   0.965       .  S
O209       Zr212   2.426   1_455  S
O209       Zr229   2.401       .  S
O209        H246   0.966       .  S
O210       Zr213   2.394       .  S
O210       Zr229   2.413       .  S
Zr211       O236   2.429       .  S
Zr211       O230   2.465   1_655  S
Zr211       O238   2.312       .  S
Zr211       O226   2.438       .  S
Zr211       O217   2.404       .  S
Zr211       O218   2.392       .  S
Zr211       O219   2.363       .  S
Zr211       O220   2.384   1_655  S
Zr212       O231   2.433       .  S
Zr212       O224   2.434       .  S
Zr212       O225   2.473       .  S
Zr212       O218   2.399       .  S
Zr212       O219   2.397       .  S
Zr213       O215   2.433       .  S
Zr213       O237   2.443   1_455  S
Zr213       O239   2.457   1_455  S
Zr213      O1451   2.439       .  S
Zr213       O217   2.366   1_455  S
Zr213       O220   2.375       .  S
Zr214       O240   2.441       .  S
Zr214       O241   2.437       .  S
Zr214       O216   2.437       .  S
Zr214      O1454   2.388       .  S
Zr214       O217   2.370       .  S
Zr214       O218   2.362       .  S
O215        H252   0.990       .  S
O216        H247   0.990       .  S
O216        H261   0.990       .  S
O218        H244   0.963       .  S
O219       Zr229   2.390   1_655  S
O220       Zr229   2.374       .  S
O220        H245   0.964       .  S
C221       C1222   1.459       .  S
C222       C1234   1.525       .  S
C223       C1193   1.464   1_565  S
O224        H260   0.990       .  S
O225        C227   1.287       .  A
O226        C227   1.278       .  A
C227       C1218   1.488       .  S
O228       Zr229   2.440       .  S
O228        H257   0.990       .  S
Zr229       O232   2.436       .  S
Zr229       O233   2.437       .  S
Zr229       O234   2.452       .  S
O230        C235   1.289       .  A
O231        H248   0.990       .  S
O231        H263   0.990       .  S
O232        H249   0.990       .  S
O233        H253   0.990       .  S
O233        H262   0.990       .  S
O234        C235   1.286       .  A
C235       C1230   1.491       .  S
O236        H255   0.989       .  S
O236        H259   0.985       .  S
O237        H251   0.984       .  S
O237       H1506   0.989       .  S
O238        C242   1.261       .  A
O239        C242   1.292       .  A
O240        H250   0.990       .  S
O241        H254   0.990       .  S
C242       C1202   1.430       .  S
H243       O1456   0.966   1_554  S
H256       O1448   0.990       .  S
H258       O1485   0.989   1_554  S
Zr265       O266   2.439       .  S
Zr265       O267   2.455       .  S
Zr265       O268   2.449       .  S
Zr265       O271   2.545       .  S
Zr265       O273   2.410       .  S
Zr265       O274   2.376       .  S
Zr265       O275   2.437       .  S
Zr265       O276   2.383       .  S
O266        H322   0.990       .  S
O266        H330   0.990       .  S
O267        C287   1.284       .  A
O268        C289   1.290       .  A
O269       Zr279   2.409       .  S
O269        C288   1.277       .  A
O270       Zr278   2.429       .  S
O270        C289   1.284       .  A
O271        C288   1.308       .  A
O272       Zr280   2.384       .  S
O272        C287   1.266       .  A
O273       Zr278   2.402       .  S
O273       Zr280   2.366       .  S
O274       Zr279   2.379       .  S
O274       Zr280   2.409       .  S
O274        H309   0.966       .  S
O275       Zr278   2.423       .  S
O275       Zr295   2.396       .  S
O275        H312   0.966       .  S
O276       Zr279   2.388       .  S
O276       Zr295   2.415       .  S
Zr277       O302   2.434   1_554  S
Zr277       O304   2.400       .  S
Zr277      O1544   2.477   1_554  S
Zr277      O1540   2.421   1_554  S
Zr277       O283   2.404       .  S
Zr277       O284   2.411       .  S
Zr277       O285   2.381       .  S
Zr277       O286   2.404       .  S
Zr278       O297   2.434   1_554  S
Zr278       O290   2.434       .  S
Zr278      O1539   2.482   1_554  S
Zr278       O284   2.394       .  S
Zr278       O285   2.404       .  S
Zr279       O281   2.441       .  S
Zr279       O303   2.439       .  S
Zr279       O305   2.419       .  S
Zr279       O283   2.377       .  S
Zr279       O286   2.387       .  S
Zr280       O306   2.442       .  S
Zr280       O307   2.437       .  S
Zr280       O282   2.438       .  S
Zr280       O283   2.340       .  S
Zr280       O284   2.390       .  S
O281        H318   0.990       .  S
O282        H313   0.990       .  S
O282        H327   0.990       .  S
O284        H310   0.964       .  S
O285       Zr295   2.397       .  S
O286       Zr295   2.381       .  S
O286        H311   0.960       .  S
C287       C1185   1.464       .  S
C288       C1177   1.517       .  S
C289       C1206   1.476       .  S
O290        H326   0.990       .  S
O291      Zr1526   2.489       .  S
O291        C293   1.294       .  A
O292      Zr1525   2.428       .  S
O292        C293   1.282       .  A
C293       C1182   1.489       .  S
O294       Zr295   2.440       .  S
O294        H323   0.990       .  S
Zr295       O298   2.436   1_554  S
Zr295       O299   2.438       .  S
Zr295      O1548   2.437   1_554  S
O296      Zr1525   2.468       .  S
O296        C301   1.290       .  A
O297        H314   0.990       .  S
O297        H329   0.990   1_556  S
O298        H315   0.990       .  S
O299        H319   0.990       .  S
O299        H328   0.990       .  S
O300      Zr1543   2.448       .  S
O300        C301   1.285       .  A
C301       C1173   1.492       .  S
O302        H321   0.991       .  S
O302        H325   0.988       .  S
O303        H317   0.990       .  S
O303        H324   0.990       .  S
O304        C308   1.260       .  A
O305        C308   1.265       .  A
O306        H316   0.990       .  S
O307        H320   0.990       .  S
C308       C1189   1.429       .  S
Zr331       O332   2.438       .  S
Zr331       O333   2.445       .  S
Zr331       O334   2.450       .  S
Zr331       O337   2.549       .  S
Zr331       O339   2.404       .  S
Zr331       O340   2.365       .  S
Zr331       O341   2.436       .  S
Zr331       O342   2.383       .  S
O332        H388   0.990       .  S
O332        H396   0.990       .  S
O333        C353   1.284       .  A
O334        C355   1.290       .  A
O335       Zr345   2.427       .  S
O335        C354   1.280       .  A
O336       Zr344   2.423       .  S
O336        C355   1.283       .  A
O337        C354   1.309       .  A
O338       Zr346   2.389       .  S
O338        C353   1.270       .  A
O339       Zr344   2.402       .  S
O339       Zr346   2.370       .  S
O340       Zr345   2.376       .  S
O340       Zr346   2.394       .  S
O340        H375   0.966       .  S
O341       Zr344   2.420       .  S
O341       Zr361   2.394       .  S
O341        H378   0.966       .  S
O342       Zr345   2.385       .  S
O342       Zr361   2.415       .  S
Zr343       O368   2.448   1_554  S
Zr343       O370   2.376   1_554  S
Zr343      O1610   2.469   1_554  S
Zr343      O1606   2.403   1_554  S
Zr343       O349   2.420       .  S
Zr343       O350   2.395       .  S
Zr343       O351   2.381       .  S
Zr343       O352   2.420       .  S
Zr344       O363   2.434   1_554  S
Zr344       O356   2.434       .  S
Zr344      O1605   2.485   1_554  S
Zr344       O350   2.386       .  S
Zr344       O351   2.390       .  S
Zr345       O347   2.451       .  S
Zr345       O369   2.434       .  S
Zr345       O371   2.462       .  S
Zr345       O349   2.386       .  S
Zr345       O352   2.371       .  S
Zr346       O372   2.441       .  S
Zr346       O373   2.438       .  S
Zr346       O348   2.439       .  S
Zr346       O349   2.373       .  S
Zr346       O350   2.382       .  S
O347        H384   0.989       .  S
O348        H379   0.990       .  S
O348        H393   0.990       .  S
O350        H376   0.965       .  S
O351       Zr361   2.393       .  S
O352       Zr361   2.367       .  S
O352        H377   0.962       .  S
C353       C1169   1.461       .  S
C354       C1161   1.526       .  S
C355       C1226   1.473       .  S
O356        H392   0.990       .  S
O357      Zr1592   2.470       .  S
O357        C359   1.290       .  A
O358      Zr1591   2.429       .  S
O358        C359   1.282       .  A
C359       C1166   1.481       .  S
O360       Zr361   2.440       .  S
O360        H389   0.990       .  S
Zr361       O364   2.436   1_554  S
Zr361       O365   2.439       .  S
Zr361      O1614   2.443   1_554  S
O362      Zr1591   2.477       .  S
O362        C367   1.292       .  A
O363        H380   0.990       .  S
O363        H395   0.990   1_556  S
O364        H381   0.990       .  S
O365        H385   0.990       .  S
O365        H394   0.990       .  S
O366      Zr1609   2.425       .  S
O366        C367   1.280       .  A
C367       C1158   1.488       .  S
O368        H387   0.990   1_556  S
O368        H391   0.989       .  S
O369        H383   0.990       .  S
O369        H390   0.990       .  S
O370        C374   1.256   1_556  A
O371        C374   1.282       .  A
O372        H382   0.990       .  S
O373        H386   0.990       .  S
C374       C1190   1.437       .  S
Zr397       O398   2.439       .  S
Zr397       O399   2.450       .  S
Zr397       O400   2.446       .  S
Zr397       O403   2.556       .  S
Zr397       O405   2.408       .  S
Zr397       O406   2.373       .  S
Zr397       O407   2.441       .  S
Zr397       O408   2.391       .  S
O398        H454   0.990       .  S
O398        H462   0.990       .  S
O399        C419   1.285       .  A
O400        C421   1.289       .  A
O401       Zr411   2.388       .  S
O401        C420   1.272       .  A
O402       Zr410   2.425       .  S
O402        C421   1.284       .  A
O403        C420   1.309       .  A
O404       Zr412   2.385       .  S
O404        C419   1.270       .  A
O405       Zr410   2.402       .  S
O405       Zr412   2.370       .  S
O406       Zr411   2.375       .  S
O406       Zr412   2.396       .  S
O406        H441   0.966       .  S
O407       Zr410   2.421       .  S
O407       Zr427   2.387       .  S
O407        H444   0.965       .  S
O408       Zr411   2.389       .  S
O408       Zr427   2.429       .  S
Zr409       O434   2.453       .  S
Zr409       O428   2.462       .  S
Zr409       O436   2.372       .  S
Zr409       O424   2.405       .  S
Zr409       O415   2.401       .  S
Zr409       O416   2.399       .  S
Zr409       O417   2.386       .  S
Zr409       O418   2.382       .  S
Zr410       O429   2.435       .  S
Zr410       O422   2.435       .  S
Zr410       O423   2.482       .  S
Zr410       O416   2.388       .  S
Zr410       O417   2.390       .  S
Zr411       O413   2.437       .  S
Zr411       O435   2.438       .  S
Zr411       O437   2.369       .  S
Zr411       O415   2.398       .  S
Zr411       O418   2.390       .  S
Zr412       O438   2.439       .  S
Zr412       O439   2.437       .  S
Zr412       O414   2.438       .  S
Zr412       O415   2.366       .  S
Zr412       O416   2.380       .  S
O413        H450   0.987       .  S
O414        H445   0.990       .  S
O414        H459   0.990       .  S
O416        H442   0.964       .  S
O417       Zr427   2.386       .  S
O418       Zr427   2.340       .  S
O418        H443   0.951       .  S
C419       C1170   1.461       .  S
C420       C1178   1.517       .  S
C421       C1149   1.472       .  S
O422        H458   0.990       .  S
O423        C425   1.292       .  A
O424        C425   1.278       .  A
C425       C1165   1.479       .  S
O426       Zr427   2.440       .  S
O426        H455   0.990       .  S
Zr427       O430   2.436       .  S
Zr427       O431   2.438       .  S
Zr427       O432   2.464       .  S
O428        C433   1.291       .  A
O429        H446   0.990       .  S
O429        H461   0.990       .  S
O430        H447   0.990       .  S
O431        H451   0.990       .  S
O431        H460   0.990       .  S
O432        C433   1.289       .  A
C433       C1174   1.496       .  S
O434        H453   0.991       .  S
O434        H457   0.984       .  S
O435        H449   0.990       .  S
O435        H456   0.990       .  S
O436        C440   1.259       .  A
O437        C440   1.265       .  A
O438        H448   0.990       .  S
O439        H452   0.990       .  S
C440       C1153   1.466       .  S
Zr463       O464   2.439       .  S
Zr463       O465   2.455       .  S
Zr463       O466   2.467       .  S
Zr463       O469   2.541       .  S
Zr463       O471   2.406       .  S
Zr463       O472   2.382       .  S
Zr463       O473   2.434       .  S
Zr463       O474   2.392       .  S
O464        H520   0.990       .  S
O464        H528   0.990       .  S
O465        C485   1.285       .  A
O466        C487   1.293       .  A
O467       Zr477   2.440       .  S
O467        C486   1.283       .  A
O468       Zr476   2.411       .  S
O468        C487   1.281       .  A
O469        C486   1.307       .  A
O470       Zr478   2.385       .  S
O470        C485   1.268       .  A
O471       Zr476   2.407       .  S
O471       Zr478   2.377       .  S
O472       Zr477   2.377       .  S
O472       Zr478   2.389       .  S
O472        H507   0.966       .  S
O473       Zr476   2.428       .  S
O473       Zr493   2.400       .  S
O473        H510   0.965       .  S
O474       Zr477   2.395       .  S
O474       Zr493   2.414       .  S
Zr475       O500   2.446       .  S
Zr475       O494   2.449       .  S
Zr475       O502   2.302       .  S
Zr475       O490   2.384       .  S
Zr475       O481   2.396       .  S
Zr475       O482   2.380       .  S
Zr475       O483   2.360       .  S
Zr475       O484   2.378       .  S
Zr476       O495   2.434       .  S
Zr476       O488   2.434       .  S
Zr476       O489   2.499       .  S
Zr476       O482   2.378       .  S
Zr476       O483   2.387       .  S
Zr477       O479   2.436       .  S
Zr477       O501   2.437       .  S
Zr477       O503   2.476       .  S
Zr477       O481   2.378       .  S
Zr477       O484   2.346       .  S
Zr478       O504   2.441       .  S
Zr478       O505   2.437       .  S
Zr478       O480   2.438       .  S
Zr478       O481   2.372       .  S
Zr478       O482   2.378       .  S
O479        H516   0.990       .  S
O480        H511   0.990       .  S
O480        H525   0.990       .  S
O482        H508   0.965       .  S
O483       Zr493   2.387       .  S
O484       Zr493   2.369       .  S
O484        H509   0.963       .  S
C485       C1186   1.464       .  S
C486       C1162   1.526       .  S
C487       C1146   1.475   1_565  S
O488        H524   0.990       .  S
O489        C491   1.295       .  A
O490        C491   1.275       .  A
C491       C1181   1.480       .  S
O492       Zr493   2.439       .  S
O492        H521   0.990       .  S
Zr493       O496   2.436       .  S
Zr493       O497   2.437       .  S
Zr493       O498   2.456       .  S
O494        C499   1.287       .  A
O495        H512   0.990   1_565  S
O495        H527   0.990       .  S
O496        H513   0.990       .  S
O497        H517   0.991       .  S
O497        H526   0.990       .  S
O498        C499   1.287       .  A
C499       C1157   1.484       .  S
O500        H519   0.990       .  S
O500        H523   0.988       .  S
O501        H515   0.990       .  S
O501        H522   0.990       .  S
O502        C506   1.259       .  A
O503        C506   1.294       .  A
O504        H514   0.990       .  S
O505        H518   0.990       .  S
C506       C1154   1.428       .  S
Zr529       O530   2.439       .  S
Zr529       O531   2.449       .  S
Zr529       O532   2.450       .  S
Zr529       O535   2.561       .  S
Zr529       O537   2.408       .  S
Zr529       O538   2.369       .  S
Zr529       O539   2.437       .  S
Zr529       O540   2.384       .  S
O530        H586   0.990       .  S
O530        H594   0.990       .  S
O531        C551   1.285       .  A
O532        C553   1.291       .  A
O533       Zr543   2.389       .  S
O533        C552   1.274       .  A
O534       Zr542   2.408       .  S
O534        C553   1.280       .  A
O535        C552   1.311       .  A
O536       Zr544   2.388       .  S
O536        C551   1.271       .  A
O537       Zr542   2.404       .  S
O537       Zr544   2.368       .  S
O538       Zr543   2.373       .  S
O538       Zr544   2.390       .  S
O538        H573   0.966       .  S
O539       Zr542   2.425       .  S
O539       Zr559   2.381       .  S
O539        H576   0.965       .  S
O540       Zr543   2.392       .  S
O540       Zr559   2.422       .  S
Zr541       O566   2.432       .  S
Zr541       O568   2.368       .  S
Zr541      O1808   2.471       .  S
Zr541      O1804   2.422       .  S
Zr541       O547   2.412       .  S
Zr541       O548   2.407       .  S
Zr541       O549   2.376       .  S
Zr541       O550   2.387       .  S
Zr542       O561   2.434       .  S
Zr542       O554   2.435       .  S
Zr542      O1803   2.480       .  S
Zr542       O548   2.382       .  S
Zr542       O549   2.393       .  S
Zr543       O545   2.440       .  S
Zr543       O567   2.443       .  S
Zr543       O569   2.380       .  S
Zr543       O547   2.396       .  S
Zr543       O550   2.398       .  S
Zr544       O570   2.440       .  S
Zr544       O571   2.437       .  S
Zr544       O546   2.438       .  S
Zr544       O547   2.367       .  S
Zr544       O548   2.381       .  S
O545        H582   0.986       .  S
O546        H577   0.990       .  S
O546        H591   0.990       .  S
O548        H574   0.963       .  S
O549       Zr559   2.392       .  S
O550       Zr559   2.349       .  S
O550        H575   0.954       .  S
C551       C1130   1.462       .  S
C552       C1137   1.519       .  S
C553       C1121   1.466       .  S
O554        H590   0.990       .  S
O555      Zr1790   2.469   1_554  S
O555        C557   1.289       .  A
O556      Zr1789   2.412       .  S
O556        C557   1.281       .  A
C557       C1125   1.479       .  S
O558       Zr559   2.439       .  S
O558        H587   0.990       .  S
Zr559       O562   2.436       .  S
Zr559       O563   2.438       .  S
Zr559      O1812   2.448       .  S
O560      Zr1789   2.462       .  S
O560        C565   1.290       .  A
O561        H578   0.990       .  S
O561        H593   0.990       .  S
O562        H579   0.990       .  S
O563        H583   0.990       .  S
O563        H592   0.990       .  S
O564      Zr1807   2.444   1_554  S
O564        C565   1.285       .  A
C565       C1133   1.482       .  S
O566        H585   0.990       .  S
O566        H589   0.987       .  S
O567        H581   0.990       .  S
O567        H588   0.989       .  S
O568        C572   1.261       .  A
O569        C572   1.267       .  A
O570        H580   0.990       .  S
O571        H584   0.990       .  S
C572       C1141   1.465       .  S
Zr595       O596   2.439       .  S
Zr595       O597   2.450       .  S
Zr595       O598   2.455       .  S
Zr595       O601   2.549       .  S
Zr595       O603   2.406       .  S
Zr595       O604   2.366       .  S
Zr595       O605   2.433       .  S
Zr595       O606   2.388       .  S
O596        H652   0.990       .  S
O596        H660   0.990       .  S
O597        C617   1.286       .  A
O598        C619   1.291       .  A
O599       Zr609   2.440       .  S
O599        C618   1.284       .  A
O600       Zr608   2.402       .  S
O600        C619   1.279       .  A
O601        C618   1.309       .  A
O602       Zr610   2.386       .  S
O602        C617   1.271       .  A
O603       Zr608   2.407       .  S
O603       Zr610   2.371       .  S
O604       Zr609   2.372       .  S
O604       Zr610   2.383       .  S
O604        H639   0.966       .  S
O605       Zr608   2.426       .  S
O605       Zr625   2.394       .  S
O605        H642   0.965       .  S
O606       Zr609   2.393       .  S
O606       Zr625   2.414       .  S
Zr607       O632   2.443       .  S
Zr607       O634   2.318       .  S
Zr607      O1874   2.454       .  S
Zr607      O1870   2.408       .  S
Zr607       O613   2.400       .  S
Zr607       O614   2.386       .  S
Zr607       O615   2.362       .  S
Zr607       O616   2.383       .  S
Zr608       O627   2.434       .  S
Zr608       O620   2.435       .  S
Zr608      O1869   2.489       .  S
Zr608       O614   2.378       .  S
Zr608       O615   2.389       .  S
Zr609       O611   2.435       .  S
Zr609       O633   2.441       .  S
Zr609       O635   2.456       .  S
Zr609       O613   2.372       .  S
Zr609       O616   2.368       .  S
Zr610       O636   2.440       .  S
Zr610       O637   2.436       .  S
Zr610       O612   2.437       .  S
Zr610       O613   2.373       .  S
Zr610       O614   2.372       .  S
O611        H648   0.990       .  S
O612        H643   0.990       .  S
O612        H657   0.990       .  S
O614        H640   0.964       .  S
O615       Zr625   2.389       .  S
O616       Zr625   2.366       .  S
O616        H641   0.964       .  S
C617       C1109   1.462       .  S
C618       C1118   1.530       .  S
C619       C1102   1.465       .  S
O620        H656   0.990       .  S
O621      Zr1856   2.469   1_554  S
O621        C623   1.289       .  A
O622      Zr1855   2.416   1_554  S
O622        C623   1.279       .  A
C623       C1105   1.480       .  S
O624       Zr625   2.440       .  S
O624        H653   0.990       .  S
Zr625       O628   2.436       .  S
Zr625       O629   2.437       .  S
Zr625      O1878   2.452       .  S
O626      Zr1855   2.476   1_554  S
O626        C631   1.291       .  A
O627        H644   0.990       .  S
O627        H659   0.990       .  S
O628        H645   0.990       .  S
O629        H649   0.990       .  S
O629        H658   0.990       .  S
O630      Zr1873   2.425   1_554  S
O630        C631   1.280       .  A
C631       C1114   1.484       .  S
O632        H651   0.990       .  S
O632        H655   0.989       .  S
O633        H647   0.985       .  S
O633        H654   0.990       .  S
O634        C638   1.261       .  A
O635        C638   1.288       .  A
O636        H646   0.990       .  S
O637        H650   0.990       .  S
C638       C1142   1.426       .  S
Zr661       O662   2.438       .  S
Zr661       O663   2.446       .  S
Zr661       O664   2.462       .  S
Zr661       O667   2.546       .  S
Zr661       O669   2.403       .  S
Zr661       O670   2.374       .  S
Zr661       O671   2.435       .  S
Zr661       O672   2.388       .  S
O662        H718   0.990       .  S
O662        H726   0.990       .  S
O663        C683   1.284       .  A
O664        C685   1.292       .  A
O665       Zr675   2.440       .  S
O665        C684   1.283       .  A
O666       Zr674   2.416       .  S
O666        C685   1.282       .  A
O667        C684   1.308       .  A
O668       Zr676   2.389       .  S
O668        C683   1.269       .  A
O669       Zr674   2.401       .  S
O669       Zr676   2.372       .  S
O670       Zr675   2.379       .  S
O670       Zr676   2.397       .  S
O670        H705   0.966       .  S
O671       Zr674   2.418       .  S
O671       Zr691   2.396       .  S
O671        H708   0.966       .  S
O672       Zr675   2.389       .  S
O672       Zr691   2.417       .  S
Zr673       O698   2.446       .  S
Zr673       O692   2.461       .  S
Zr673       O700   2.370       .  S
Zr673       O688   2.405       .  S
Zr673       O679   2.421       .  S
Zr673       O680   2.392       .  S
Zr673       O681   2.379       .  S
Zr673       O682   2.424       .  S
Zr674       O693   2.434       .  S
Zr674       O686   2.434       .  S
Zr674       O687   2.473       .  S
Zr674       O680   2.389       .  S
Zr674       O681   2.390       .  S
Zr675       O677   2.451       .  S
Zr675       O699   2.436       .  S
Zr675       O701   2.473       .  S
Zr675       O679   2.390       .  S
Zr675       O682   2.370       .  S
Zr676       O702   2.442       .  S
Zr676       O703   2.438       .  S
Zr676       O678   2.439       .  S
Zr676       O679   2.371       .  S
Zr676       O680   2.386       .  S
O677        H714   0.990       .  S
O678        H709   0.990       .  S
O678        H723   0.990       .  S
O680        H706   0.965       .  S
O681       Zr691   2.393       .  S
O682       Zr691   2.363       .  S
O682        H707   0.959       .  S
C683       C1129   1.462       .  S
C684       C1117   1.529       .  S
C685       C1145   1.476       .  S
O686        H722   0.990       .  S
O687        C689   1.290       .  A
O688        C689   1.279       .  A
C689       C1126   1.478       .  S
O690       Zr691   2.440       .  S
O690        H719   0.990       .  S
Zr691       O694   2.436       .  S
Zr691       O695   2.439       .  S
Zr691       O696   2.451       .  S
O692        C697   1.290       .  A
O693        H710   0.990       .  S
O693        H725   0.990       .  S
O694        H711   0.990       .  S
O695        H715   0.990       .  S
O695        H724   0.990       .  S
O696        C697   1.287       .  A
C697       C1113   1.488       .  S
O698        H717   0.991       .  S
O698        H721   0.988       .  S
O699        H713   0.990       .  S
O699        H720   0.990       .  S
O700        C704   1.255       .  A
O701        C704   1.285       .  A
O702        H712   0.990       .  S
O703        H716   0.990       .  S
C704       C1098   1.436       .  S
Zr727       O728   2.438       .  S
Zr727       O729   2.445       .  S
Zr727       O730   2.449       .  S
Zr727       O733   2.541       .  S
Zr727       O735   2.406       .  S
Zr727       O736   2.375       .  S
Zr727       O737   2.434       .  S
Zr727       O738   2.383       .  S
O728        H784   0.990       .  S
O728        H792   0.990       .  S
O729        C749   1.284       .  A
O730        C751   1.289       .  A
O731       Zr741   2.415       .  S
O731        C750   1.279       .  A
O732       Zr740   2.416       .  S
O732        C751   1.281       .  A
O733        C750   1.307       .  A
O734       Zr742   2.388       .  S
O734        C749   1.269       .  A
O735       Zr740   2.399       .  S
O735       Zr742   2.367       .  S
O736       Zr741   2.375       .  S
O736       Zr742   2.404       .  S
O736        H771   0.966       .  S
O737       Zr740   2.419       .  S
O737       Zr757   2.397       .  S
O737        H774   0.966       .  S
O738       Zr741   2.387       .  S
O738       Zr757   2.414       .  S
Zr739       O764   2.453       .  S
Zr739       O758   2.467       .  S
Zr739       O766   2.387       .  S
Zr739       O754   2.406       .  S
Zr739       O745   2.417       .  S
Zr739       O746   2.401       .  S
Zr739       O747   2.382       .  S
Zr739       O748   2.411       .  S
Zr740       O759   2.434       .  S
Zr740       O752   2.434       .  S
Zr740       O753   2.473       .  S
Zr740       O746   2.388       .  S
Zr740       O747   2.392       .  S
Zr741       O743   2.439       .  S
Zr741       O765   2.436       .  S
Zr741       O767   2.414       .  S
Zr741       O745   2.386       .  S
Zr741       O748   2.380       .  S
Zr742       O768   2.441       .  S
Zr742       O769   2.437       .  S
Zr742       O744   2.438       .  S
Zr742       O745   2.355       .  S
Zr742       O746   2.389       .  S
O743        H780   0.990       .  S
O744        H775   0.990       .  S
O744        H789   0.990       .  S
O746        H772   0.965       .  S
O747       Zr757   2.393       .  S
O748       Zr757   2.365       .  S
O748        H773   0.960       .  S
C749       C1110   1.461       .  S
C750       C1138   1.518       .  S
C751       C1150   1.469       .  S
O752        H788   0.990       .  S
O753        C755   1.290       .  A
O754        C755   1.278       .  A
C755       C1106   1.479       .  S
O756       Zr757   2.440       .  S
O756        H785   0.990       .  S
Zr757       O760   2.436       .  S
Zr757       O761   2.439       .  S
Zr757       O762   2.444       .  S
O758        C763   1.290       .  A
O759        H776   0.990       .  S
O759        H791   0.990       .  S
O760        H777   0.990       .  S
O761        H781   0.990       .  S
O761        H790   0.990       .  S
O762        C763   1.285       .  A
C763       C1134   1.487       .  S
O764        H783   0.991       .  S
O764        H787   0.989       .  S
O765        H779   0.990       .  S
O765        H786   0.990       .  S
O766        C770   1.261       .  A
O767        C770   1.264       .  A
O768        H778   0.990       .  S
O769        H782   0.990       .  S
C770       C1097   1.428       .  S
Zr793       O794   2.439       .  S
Zr793       O795   2.451       .  S
Zr793       O796   2.451       .  S
Zr793       O799   2.556       .  S
Zr793       O801   2.409       .  S
Zr793       O802   2.377       .  S
Zr793       O803   2.438       .  S
Zr793       O804   2.391       .  S
O794        H850   0.990       .  S
O794        H858   0.990       .  S
O795        C815   1.285       .  A
O796        C817   1.291       .  A
O797       Zr807   2.405       .  S
O797        C816   1.276       .  A
O798       Zr806   2.409       .  S
O798        C817   1.280       .  A
O799        C816   1.310       .  A
O800       Zr808   2.386       .  S
O800        C815   1.269       .  A
O801       Zr806   2.404       .  S
O801       Zr808   2.368       .  S
O802       Zr807   2.375       .  S
O802       Zr808   2.394       .  S
O802        H837   0.966       .  S
O803       Zr806   2.429       .  S
O803       Zr823   2.388       .  S
O803        H840   0.965       .  S
O804       Zr807   2.399       .  S
O804       Zr823   2.427       .  S
Zr805       O830   2.431       .  S
Zr805       O824   2.458       .  S
Zr805       O832   2.361       .  S
Zr805       O820   2.418       .  S
Zr805       O811   2.412       .  S
Zr805       O812   2.398       .  S
Zr805       O813   2.376       .  S
Zr805       O814   2.385       .  S
Zr806       O825   2.434       .  S
Zr806       O818   2.434       .  S
Zr806       O819   2.492       .  S
Zr806       O812   2.382       .  S
Zr806       O813   2.390       .  S
Zr807       O809   2.435       .  S
Zr807       O831   2.439       .  S
Zr807       O833   2.389       .  S
Zr807       O811   2.400       .  S
Zr807       O814   2.385       .  S
Zr808       O834   2.440       .  S
Zr808       O835   2.437       .  S
Zr808       O810   2.437       .  S
Zr808       O811   2.365       .  S
Zr808       O812   2.382       .  S
O809        H846   0.990       .  S
O810        H841   0.990       .  S
O810        H855   0.990       .  S
O812        H838   0.963       .  S
O813       Zr823   2.397       .  S
O814       Zr823   2.345       .  S
O814        H839   0.950       .  S
C815       C1081   1.462       .  S
C816       C1086   1.522       .  S
C817       C1101   1.467       .  S
O818        H854   0.990       .  S
O819        C821   1.294       .  A
O820        C821   1.280       .  A
C821       C1078   1.487       .  S
O822       Zr823   2.440       .  S
O822        H851   0.990       .  S
Zr823       O826   2.436       .  S
Zr823       O827   2.438       .  S
Zr823       O828   2.456       .  S
O824        C829   1.289       .  A
O825        H842   0.990       .  S
O825        H857   0.990       .  S
O826        H843   0.990       .  S
O827        H847   0.990       .  S
O827        H856   0.990       .  S
O828        C829   1.286       .  A
C829       C1090   1.488       .  S
O830        H849   0.990       .  S
O830        H853   0.986       .  S
O831        H845   0.990       .  S
O831        H852   0.990       .  S
O832        C836   1.260       .  A
O833        C836   1.269       .  A
O834        H844   0.990       .  S
O835        H848   0.990       .  S
C836       C1093   1.472       .  S
Zr859       O860   2.438       .  S
Zr859       O861   2.441       .  S
Zr859       O862   2.459       .  S
Zr859       O865   2.549       .  S
Zr859       O867   2.404       .  S
Zr859       O868   2.369       .  S
Zr859       O869   2.431       .  S
Zr859       O870   2.389       .  S
O860        H916   0.990       .  S
O860        H924   0.990       .  S
O861        C881   1.285       .  A
O862        C883   1.292       .  A
O863       Zr873   2.449       .  S
O863        C882   1.285       .  A
O864       Zr872   2.392       .  S
O864        C883   1.277       .  A
O865        C882   1.309       .  A
O866       Zr874   2.387       .  S
O866        C881   1.274       .  A
O867       Zr872   2.412       .  S
O867       Zr874   2.368       .  S
O868       Zr873   2.378       .  S
O868       Zr874   2.381       .  S
O868        H903   0.966       .  S
O869       Zr872   2.431       .  S
O869       Zr889   2.393       .  S
O869        H906   0.965       .  S
O870       Zr873   2.395       .  S
O870       Zr889   2.412       .  S
Zr871       O896   2.443       .  S
Zr871       O890   2.457       .  S
Zr871       O898   2.298       .  S
Zr871       O886   2.394       .  S
Zr871       O877   2.402       .  S
Zr871       O878   2.384       .  S
Zr871       O879   2.356       .  S
Zr871       O880   2.382       .  S
Zr872       O891   2.434       .  S
Zr872       O884   2.435       .  S
Zr872       O885   2.502       .  S
Zr872       O878   2.370       .  S
Zr872       O879   2.382       .  S
Zr873       O875   2.436       .  S
Zr873       O897   2.437       .  S
Zr873       O899   2.473       .  S
Zr873       O877   2.369       .  S
Zr873       O880   2.365       .  S
Zr874       O900   2.438       .  S
Zr874       O901   2.436       .  S
Zr874       O876   2.437       .  S
Zr874       O877   2.374       .  S
Zr874       O878   2.375       .  S
O875        H912   0.990       .  S
O876        H907   0.990       .  S
O876        H921   0.990       .  S
O878        H904   0.964       .  S
O879       Zr889   2.390       .  S
O880       Zr889   2.366       .  S
O880        H905   0.964       .  S
C881       C1066   1.462       .  S
C882       C1073   1.534       .  S
C883       C1122   1.460       .  S
O884        H920   0.990       .  S
O885        C887   1.295       .  A
O886        C887   1.276       .  A
C887       C1061   1.484       .  S
O888       Zr889   2.440       .  S
O888        H917   0.990       .  S
Zr889       O892   2.436       .  S
Zr889       O893   2.437       .  S
Zr889       O894   2.450       .  S
O890        C895   1.289       .  A
O891        H908   0.990       .  S
O891        H923   0.990       .  S
O892        H909   0.990       .  S
O893        H913   0.990       .  S
O893        H922   0.990       .  S
O894        C895   1.286       .  A
C895       C1069   1.484       .  S
O896        H915   0.990       .  S
O896        H919   0.987       .  S
O897        H911   0.990       .  S
O897        H918   0.990       .  S
O898        C902   1.257       .  A
O899        C902   1.291       .  A
O900        H910   0.990       .  S
O901        H914   0.990       .  S
C902       C1094   1.424   1_655  S
Zr925       O926   2.439   1_654  S
Zr925       O928   2.448       .  S
Zr925      O2175   2.445   1_554  S
Zr925      O2179   2.569   1_654  S
Zr925       O933   2.410       .  S
Zr925       O934   2.364       .  S
Zr925       O935   2.437       .  S
Zr925       O936   2.382   1_655  S
O926        H990   0.990       .  S
O926       H2230   0.990       .  S
O927      Zr2173   2.442       .  S
O927        C947   1.285       .  A
O928        C949   1.291       .  A
O929      Zr2187   2.388       .  S
O929        C948   1.274       .  A
O930       Zr938   2.417       .  S
O930        C949   1.282       .  A
O931      Zr2173   2.569   1_455  S
O931        C948   1.313       .  A
O932      Zr2188   2.389       .  S
O932        C947   1.273       .  A
O933       Zr938   2.409       .  S
O933       Zr940   2.365       .  S
O934       Zr939   2.373   1_655  S
O934       Zr940   2.389       .  S
O934       H2217   0.966   1_554  S
O935       Zr938   2.428       .  S
O935       Zr955   2.377   1_655  S
O935        H972   0.965   1_655  S
O936       Zr939   2.392       .  S
O936       Zr955   2.421       .  S
Zr937       O962   2.432       .  S
Zr937       O956   2.478   1_655  S
Zr937       O964   2.369       .  S
Zr937       O952   2.433       .  S
Zr937       O943   2.413       .  S
Zr937       O944   2.409       .  S
Zr937       O945   2.379       .  S
Zr937       O946   2.385   1_655  S
Zr938       O957   2.434       .  S
Zr938       O950   2.435       .  S
Zr938       O951   2.492       .  S
Zr938       O944   2.384       .  S
Zr938       O945   2.396       .  S
Zr939       O941   2.437       .  S
Zr939       O963   2.441   1_455  S
Zr939       O965   2.375       .  S
Zr939      O2177   2.387   1_554  S
Zr939       O943   2.392   1_455  S
Zr939       O946   2.400       .  S
Zr940       O966   2.437   1_554  S
Zr940       O967   2.436       .  S
Zr940       O942   2.438       .  S
Zr940      O2180   2.388   1_554  S
Zr940       O943   2.371       .  S
Zr940       O944   2.377       .  S
O941        H978   0.987       .  S
O942        H973   0.990       .  S
O942        H987   0.990       .  S
O944        H970   0.962       .  S
O945       Zr955   2.396   1_655  S
O946       Zr955   2.349       .  S
O946        H971   0.954       .  S
C947       C1065   1.461       .  S
C948       C1085   1.522       .  S
C949       C1194   1.469       .  S
O950        H986   0.990       .  S
O951        C953   1.294       .  A
O952        C953   1.284       .  A
C953       C1062   1.489       .  S
O954       Zr955   2.439       .  S
O954        H983   0.990       .  S
Zr955       O958   2.436       .  S
Zr955       O959   2.438       .  S
Zr955       O960   2.442       .  S
O956        C961   1.292       .  A
O957        H974   0.990       .  S
O957        H989   0.990       .  S
O958        H975   0.990       .  S
O959        H979   0.990       .  S
O959        H988   0.990       .  S
O960        C961   1.283       .  A
C961       C1089   1.495       .  S
O962        H981   0.988       .  S
O962        H985   0.986       .  S
O963        H977   0.990   1_554  S
O963       H2232   0.989       .  S
O964        C968   1.262       .  A
O965        C968   1.266   1_455  A
O966        H976   0.990       .  S
O967        H980   0.990       .  S
C968       C1057   1.467   1_655  S
H969       O2182   0.966       .  S
H982       O2174   0.990       .  S
H984       O2211   0.989       .  S
Zr991       O992   2.438   1_454  S
Zr991       O994   2.455       .  S
Zr991      O2241   2.446   1_554  S
Zr991      O2245   2.548   1_454  S
Zr991       O999   2.407       .  S
Zr991      O1000   2.369       .  S
Zr991      O1001   2.433       .  S
Zr991      O1002   2.387   1_455  S
O992       H1056   0.990       .  S
O992       H2296   0.990   1_655  S
O993      Zr2239   2.447       .  S
O993       C1013   1.285       .  A
O994       C1015   1.291       .  A
O995      Zr2253   2.450   1_655  S
O995       C1014   1.286       .  A
O996      Zr1004   2.398       .  S
O996       C1015   1.278       .  A
O997      Zr2239   2.547   1_655  S
O997       C1014   1.309       .  A
O998      Zr2254   2.389       .  S
O998       C1013   1.271       .  A
O999      Zr1004   2.407       .  S
O999      Zr1006   2.371       .  S
O1000     Zr1005   2.372       .  S
O1000     Zr1006   2.385       .  S
O1000      H1035   0.965   1_554  S
O1001     Zr1004   2.428       .  S
O1001     Zr1021   2.399   1_455  S
O1001      H1038   0.966       .  S
O1002     Zr1005   2.393   1_655  S
O1002     Zr1021   2.411       .  S
Zr1003     O1028   2.450       .  S
Zr1003     O1022   2.463       .  S
Zr1003     O1030   2.311       .  S
Zr1003     O1018   2.392       .  S
Zr1003     O1009   2.396       .  S
Zr1003     O1010   2.384       .  S
Zr1003     O1011   2.359       .  S
Zr1003     O1012   2.382       .  S
Zr1004     O1023   2.434       .  S
Zr1004     O1016   2.434       .  S
Zr1004     O1017   2.496       .  S
Zr1004     O1010   2.372       .  S
Zr1004     O1011   2.383       .  S
Zr1005     O1007   2.435   1_455  S
Zr1005     O1029   2.440       .  S
Zr1005     O1031   2.464       .  S
Zr1005     O2243   2.449   1_454  S
Zr1005     O1009   2.373       .  S
Zr1005     O1012   2.366       .  S
Zr1006     O1032   2.441   1_554  S
Zr1006     O1033   2.438       .  S
Zr1006     O1008   2.438       .  S
Zr1006     O2246   2.389   1_554  S
Zr1006     O1009   2.370       .  S
Zr1006     O1010   2.380       .  S
O1007      H1044   0.990       .  S
O1008      H1039   0.991       .  S
O1008      H1053   0.990       .  S
O1010      H1036   0.964       .  S
O1011     Zr1021   2.388   1_455  S
O1012     Zr1021   2.372   1_455  S
O1012      H1037   0.964   1_455  S
C1013      C1082   1.462       .  S
C1014      C1074   1.534       .  S
C1015      C1198   1.463       .  S
O1016      H1052   0.990       .  S
O1017      C1019   1.294       .  A
O1018      C1019   1.277       .  A
C1019      C1077   1.481       .  S
O1020     Zr1021   2.439       .  S
O1020      H1049   0.990       .  S
Zr1021     O1024   2.437       .  S
Zr1021     O1025   2.437       .  S
Zr1021     O1026   2.448       .  S
O1022      C1027   1.290   1_455  A
O1023      H1040   0.990       .  S
O1023      H1055   0.990       .  S
O1024      H1041   0.990       .  S
O1025      H1045   0.990       .  S
O1025      H1054   0.990       .  S
O1026      C1027   1.286       .  A
C1027      C1070   1.491       .  S
O1028      H1047   0.990       .  S
O1028      H1051   0.989       .  S
O1029      H1043   0.984       .  S
O1029      H2298   0.990   1_554  S
O1030      C1034   1.262       .  A
O1031      C1034   1.291       .  A
O1032      H1042   0.990       .  S
O1033      H1046   0.990       .  S
C1034      C1058   1.427       .  S
H1048      O2240   0.990   1_455  S
H1050      O2277   0.990       .  S
C1057      C1058   1.337       .  D
C1057      H1059   1.087       .  S
C1058      H1060   1.080       .  S
C1061      C1062   1.358       .  D
C1061      H1063   1.087       .  S
C1062      H1064   1.086       .  S
C1065      C1066   1.349       .  D
C1065      H1067   1.086       .  S
C1066      H1068   1.086       .  S
C1069      C1070   1.354       .  D
C1069      H1071   1.086       .  S
C1070      H1072   1.086       .  S
C1073      C1074   1.381       .  D
C1073      H1075   1.086       .  S
C1074      H1076   1.086       .  S
C1077      C1078   1.358       .  D
C1077      H1079   1.087       .  S
C1078      H1080   1.086       .  S
C1081      C1082   1.350       .  D
C1081      H1083   1.085       .  S
C1082      H1084   1.085       .  S
C1085      C1086   1.383       .  D
C1085      H1087   1.086       .  S
C1086      H1088   1.086       .  S
C1089      C1090   1.349       .  D
C1089      H1091   1.086       .  S
C1090      H1092   1.078       .  S
C1093      C1094   1.333       .  D
C1093      H1095   1.084       .  S
C1094      H1096   1.080       .  S
C1097      C1098   1.317       .  D
C1097      H1099   1.081       .  S
C1098      H1100   1.087       .  S
C1101      C1102   1.334       .  D
C1101      H1103   1.087       .  S
C1102      H1104   1.088       .  S
C1105      C1106   1.356       .  D
C1105      H1107   1.086       .  S
C1106      H1108   1.087       .  S
C1109      C1110   1.350       .  D
C1109      H1111   1.085       .  S
C1110      H1112   1.085       .  S
C1113      C1114   1.350       .  D
C1113      H1115   1.079       .  S
C1114      H1116   1.086       .  S
C1117      C1118   1.380       .  D
C1117      H1119   1.086       .  S
C1118      H1120   1.086       .  S
C1121      C1122   1.332       .  D
C1121      H1123   1.087       .  S
C1122      H1124   1.088       .  S
C1125      C1126   1.354       .  D
C1125      H1127   1.086       .  S
C1126      H1128   1.087       .  S
C1129      C1130   1.350       .  D
C1129      H1131   1.085       .  S
C1130      H1132   1.085       .  S
C1133      C1134   1.353       .  D
C1133      H1135   1.086       .  S
C1134      H1136   1.086       .  S
C1137      C1138   1.379       .  D
C1137      H1139   1.086       .  S
C1138      H1140   1.086       .  S
C1141      C1142   1.332       .  D
C1141      H1143   1.082       .  S
C1142      H1144   1.080       .  S
C1145      C1146   1.337       .  D
C1145      H1147   1.087       .  S
C1146      H1148   1.087       .  S
C1149      C1150   1.339       .  D
C1149      H1151   1.087       .  S
C1150      H1152   1.087       .  S
C1153      C1154   1.340       .  D
C1153      H1155   1.087       .  S
C1154      H1156   1.079       .  S
C1157      C1158   1.345       .  D
C1157      H1159   1.080       .  S
C1158      H1160   1.086       .  S
C1161      C1162   1.379       .  D
C1161      H1163   1.086       .  S
C1162      H1164   1.086       .  S
C1165      C1166   1.356       .  D
C1165      H1167   1.087       .  S
C1166      H1168   1.087       .  S
C1169      C1170   1.350       .  D
C1169      H1171   1.086       .  S
C1170      H1172   1.085       .  S
C1173      C1174   1.354       .  D
C1173      H1175   1.082       .  S
C1174      H1176   1.086       .  S
C1177      C1178   1.379       .  D
C1177      H1179   1.086       .  S
C1178      H1180   1.086       .  S
C1181      C1182   1.359       .  D
C1181      H1183   1.087       .  S
C1182      H1184   1.086       .  S
C1185      C1186   1.351       .  D
C1185      H1187   1.084       .  S
C1186      H1188   1.084       .  S
C1189      C1190   1.320       .  D
C1189      H1191   1.082       .  S
C1190      H1192   1.087   1_554  S
C1193      C2442   1.336       .  D
C1193      H1195   1.088       .  S
C1194      C2441   1.334   1_554  D
C1194      H1196   1.087       .  S
C1197      C2446   1.336       .  D
C1197      H1199   1.087       .  S
C1198      C2445   1.335   1_554  D
C1198      H1200   1.087       .  S
C1201      C1202   1.340   1_455  D
C1201      H1203   1.085       .  S
C1202      H1204   1.079       .  S
C1205      C1206   1.340       .  D
C1205      H1207   1.087       .  S
C1206      H1208   1.087       .  S
C1209      C1210   1.357       .  D
C1209      H1211   1.085       .  S
C1210      H1212   1.087       .  S
C1213      C1214   1.378       .  D
C1213      H1215   1.086       .  S
C1214      H1216   1.086       .  S
C1217      C1218   1.341       .  D
C1217      H1219   1.086       .  S
C1218      H1220   1.086       .  S
C1221      C1222   1.349       .  D
C1221      H1223   1.085       .  S
C1222      H1224   1.086       .  S
C1225      C1226   1.339       .  D
C1225      H1227   1.087       .  S
C1226      H1228   1.087       .  S
C1229      C1230   1.355       .  D
C1229      H1231   1.085       .  S
C1230      H1232   1.086       .  S
C1233      C1234   1.376       .  D
C1233      H1235   1.086       .  S
C1234      H1236   1.086       .  S
C1237      C1238   1.350       .  D
C1237      H1239   1.085       .  S
C1238      H1240   1.085       .  S
C1241      C1242   1.356       .  D
C1241      H1243   1.087       .  S
C1242      H1244   1.086       .  S
C1245      C1246   1.318       .  D
C1245      H1247   1.087       .  S
C1246      H1248   1.082       .  S
Zr1249     O1250   2.439       .  S
Zr1249     O1251   2.447       .  S
Zr1249     O1252   2.461       .  S
Zr1249     O1255   2.537       .  S
Zr1249     O1257   2.404       .  S
Zr1249     O1258   2.377       .  S
Zr1249     O1259   2.432       .  S
Zr1249     O1260   2.392       .  S
O1250      H1306   0.990       .  S
O1250      H1314   0.990       .  S
O1251      C1271   1.285       .  A
O1252      C1273   1.292       .  A
O1253     Zr1263   2.446       .  S
O1253      C1272   1.285       .  A
O1254     Zr1262   2.408       .  S
O1254      C1273   1.280       .  A
O1255      C1272   1.307       .  A
O1256     Zr1264   2.387       .  S
O1256      C1271   1.271       .  A
O1257     Zr1262   2.409       .  S
O1257     Zr1264   2.373       .  S
O1258     Zr1263   2.378       .  S
O1258     Zr1264   2.384       .  S
O1258      H1293   0.966       .  S
O1259     Zr1262   2.430       .  S
O1259     Zr1279   2.403       .  S
O1259      H1296   0.966       .  S
O1260     Zr1263   2.395       .  S
O1260     Zr1279   2.413       .  S
Zr1261     O1286   2.444       .  S
Zr1261     O1280   2.464       .  S
Zr1261     O1288   2.293       .  S
Zr1261     O1276   2.384       .  S
Zr1261     O1267   2.400       .  S
Zr1261     O1268   2.383       .  S
Zr1261     O1269   2.356       .  S
Zr1261     O1270   2.378       .  S
Zr1262     O1281   2.433       .  S
Zr1262     O1274   2.434       .  S
Zr1262     O1275   2.508       .  S
Zr1262     O1268   2.372       .  S
Zr1262     O1269   2.385       .  S
Zr1263     O1265   2.436       .  S
Zr1263     O1287   2.438       .  S
Zr1263     O1289   2.472       .  S
Zr1263     O1267   2.374       .  S
Zr1263     O1270   2.356       .  S
Zr1264     O1290   2.440       .  S
Zr1264     O1291   2.438       .  S
Zr1264     O1266   2.438       .  S
Zr1264     O1267   2.374       .  S
Zr1264     O1268   2.377       .  S
O1265      H1302   0.990       .  S
O1266      H1297   0.991       .  S
O1266      H1311   0.990       .  S
O1268      H1294   0.964       .  S
O1269     Zr1279   2.389       .  S
O1270     Zr1279   2.366       .  S
O1270      H1295   0.964       .  S
C1271      C2485   1.462       .  S
C1272      C2481   1.528       .  S
C1273      C2473   1.470       .  S
O1274      H1310   0.990       .  S
O1275      C1277   1.296       .  A
O1276      C1277   1.274       .  A
C1277      C2489   1.483       .  S
O1278     Zr1279   2.439       .  S
O1278      H1307   0.990       .  S
Zr1279     O1282   2.436       .  S
Zr1279     O1283   2.437       .  S
Zr1279     O1284   2.459       .  S
O1280      C1285   1.291       .  A
O1281      H1298   0.990       .  S
O1281      H1313   0.990       .  S
O1282      H1299   0.990       .  S
O1283      H1303   0.990       .  S
O1283      H1312   0.990       .  S
O1284      C1285   1.288       .  A
C1285      C2477   1.495       .  S
O1286      H1305   0.990       .  S
O1286      H1309   0.987       .  S
O1287      H1301   0.990       .  S
O1287      H1308   0.990       .  S
O1288      C1292   1.256       .  A
O1289      C1292   1.292       .  A
O1290      H1300   0.990       .  S
O1291      H1304   0.990       .  S
C1292      C2494   1.423   1_455  S
Zr1315     O1316   2.438       .  S
Zr1315     O1317   2.448       .  S
Zr1315     O1318   2.447       .  S
Zr1315     O1321   2.547       .  S
Zr1315     O1323   2.408       .  S
Zr1315     O1324   2.377       .  S
Zr1315     O1325   2.439       .  S
Zr1315     O1326   2.396       .  S
O1316      H1372   0.990       .  S
O1316      H1380   0.990       .  S
O1317      C1337   1.284       .  A
O1318      C1339   1.289       .  A
O1319     Zr1329   2.406       .  S
O1319      C1338   1.277       .  A
O1320     Zr1328   2.428       .  S
O1320      C1339   1.284       .  A
O1321      C1338   1.308       .  A
O1322     Zr1330   2.388       .  S
O1322      C1337   1.269       .  A
O1323     Zr1328   2.401       .  S
O1323     Zr1330   2.370       .  S
O1324     Zr1329   2.371       .  S
O1324     Zr1330   2.386       .  S
O1324      H1359   0.966       .  S
O1325     Zr1328   2.429       .  S
O1325     Zr1345   2.398       .  S
O1325      H1362   0.965       .  S
O1326     Zr1329   2.399       .  S
O1326     Zr1345   2.431       .  S
Zr1327     O1352   2.434       .  S
Zr1327     O1346   2.454       .  S
Zr1327     O1354   2.366       .  S
Zr1327     O1342   2.434       .  S
Zr1327     O1333   2.417       .  S
Zr1327     O1334   2.395       .  S
Zr1327     O1335   2.377       .  S
Zr1327     O1336   2.381       .  S
Zr1328     O1347   2.434       .  S
Zr1328     O1340   2.434       .  S
Zr1328     O1341   2.487       .  S
Zr1328     O1334   2.404       .  S
Zr1328     O1335   2.394       .  S
Zr1329     O1331   2.434       .  S
Zr1329     O1353   2.439       .  S
Zr1329     O1355   2.391       .  S
Zr1329     O1333   2.394       .  S
Zr1329     O1336   2.384       .  S
Zr1330     O1356   2.441       .  S
Zr1330     O1357   2.437       .  S
Zr1330     O1332   2.438       .  S
Zr1330     O1333   2.370       .  S
Zr1330     O1334   2.368       .  S
O1331      H1368   0.990       .  S
O1332      H1363   0.990       .  S
O1332      H1377   0.990       .  S
O1334      H1360   0.963       .  S
O1335     Zr1345   2.395       .  S
O1336     Zr1345   2.339       .  S
O1336      H1361   0.939       .  S
C1337      C2469   1.461       .  S
C1338      C2462   1.519       .  S
C1339      C2453   1.474       .  S
O1340      H1376   0.990       .  S
O1341      C1343   1.292       .  A
O1342      C1343   1.278       .  A
C1343      C2465   1.486       .  S
O1344     Zr1345   2.439       .  S
O1344      H1373   0.990       .  S
Zr1345     O1348   2.436       .  S
Zr1345     O1349   2.438       .  S
Zr1345     O1350   2.478       .  S
O1346      C1351   1.289       .  A
O1347      H1364   0.990       .  S
O1347      H1379   0.990       .  S
O1348      H1365   0.990       .  S
O1349      H1369   0.990       .  S
O1349      H1378   0.990       .  S
O1350      C1351   1.290       .  A
C1351      C2457   1.495       .  S
O1352      H1371   0.988       .  S
O1352      H1375   0.987       .  S
O1353      H1367   0.990       .  S
O1353      H1374   0.990       .  S
O1354      C1358   1.261       .  A
O1355      C1358   1.270       .  A
O1356      H1366   0.990       .  S
O1357      H1370   0.990       .  S
C1358      C2493   1.470       .  S
Zr1381     O1382   2.439   1_556  S
Zr1381     O1384   2.448       .  S
Zr1381     O1389   2.407       .  S
Zr1381     O1390   2.368       .  S
Zr1381     O1391   2.437       .  S
Zr1381     O1392   2.387   1_455  S
O1382      H1446   0.990   1_455  S
O1383      C1403   1.285       .  A
O1384      C1405   1.291       .  A
O1385      C1404   1.278       .  A
O1386     Zr1394   2.416       .  S
O1386      C1405   1.282       .  A
O1387      C1404   1.308       .  A
O1388      C1403   1.270       .  A
O1389     Zr1394   2.406       .  S
O1389     Zr1396   2.367       .  S
O1390     Zr1395   2.375       .  S
O1390     Zr1396   2.388       .  S
O1391     Zr1394   2.427       .  S
O1391     Zr1411   2.383   1_455  S
O1391      H1428   0.965       .  S
O1392     Zr1395   2.391   1_655  S
O1392     Zr1411   2.422       .  S
Zr1393     O1418   2.425       .  S
Zr1393     O1412   2.489       .  S
Zr1393     O1420   2.363       .  S
Zr1393     O1408   2.440       .  S
Zr1393     O1399   2.414       .  S
Zr1393     O1400   2.408       .  S
Zr1393     O1401   2.375       .  S
Zr1393     O1402   2.393       .  S
Zr1394     O1413   2.434       .  S
Zr1394     O1406   2.435       .  S
Zr1394     O1407   2.488       .  S
Zr1394     O1400   2.382       .  S
Zr1394     O1401   2.397       .  S
Zr1395     O1397   2.440   1_455  S
Zr1395     O1419   2.442       .  S
Zr1395     O1421   2.381       .  S
Zr1395     O1399   2.394       .  S
Zr1395     O1402   2.405       .  S
Zr1396     O1422   2.439   1_556  S
Zr1396     O1423   2.436       .  S
Zr1396     O1398   2.438       .  S
Zr1396     O1399   2.366       .  S
Zr1396     O1400   2.378       .  S
O1397      H1434   0.987       .  S
O1398      H1429   0.990       .  S
O1398      H1443   0.990       .  S
O1400      H1426   0.962       .  S
O1401     Zr1411   2.395   1_455  S
O1402     Zr1411   2.356   1_455  S
O1402      H1427   0.958   1_455  S
C1403      C2486   1.462       .  S
C1404      C2461   1.518       .  S
C1405      C2445   1.469       .  S
O1406      H1442   0.990       .  S
O1407      C1409   1.294       .  A
O1408      C1409   1.285       .  A
C1409      C2490   1.490       .  S
O1410     Zr1411   2.439       .  S
O1410      H1439   0.990       .  S
Zr1411     O1414   2.437       .  S
Zr1411     O1415   2.438       .  S
Zr1411     O1416   2.445       .  S
O1412      C1417   1.295   1_455  A
O1413      H1430   0.990       .  S
O1413      H1445   0.990       .  S
O1414      H1431   0.990       .  S
O1415      H1435   0.990       .  S
O1415      H1444   0.990       .  S
O1416      C1417   1.284       .  A
C1417      C2458   1.502       .  S
O1418      H1437   0.989       .  S
O1418      H1441   0.984       .  S
O1419      H1433   0.990   1_556  S
O1420      C1424   1.260       .  A
O1421      C1424   1.269       .  A
O1422      H1432   0.990       .  S
O1423      H1436   0.990       .  S
C1424      C2449   1.465       .  S
Zr1447     O1448   2.439   1_656  S
Zr1447     O1450   2.456       .  S
Zr1447     O1455   2.402       .  S
Zr1447     O1456   2.369       .  S
Zr1447     O1457   2.429   1_655  S
Zr1447     O1458   2.391   1_655  S
O1448      H1512   0.990       .  S
O1449      C1469   1.284       .  A
O1450      C1471   1.291       .  A
O1451      C1470   1.284       .  A
O1452     Zr1460   2.395       .  S
O1452      C1471   1.277       .  A
O1453      C1470   1.308       .  A
O1454      C1469   1.270       .  A
O1455     Zr1460   2.408       .  S
O1455     Zr1462   2.372       .  S
O1456     Zr1461   2.372   1_655  S
O1456     Zr1462   2.377       .  S
O1457     Zr1460   2.424   1_455  S
O1457     Zr1477   2.398       .  S
O1457      H1494   0.966       .  S
O1458     Zr1461   2.395       .  S
O1458     Zr1477   2.409       .  S
Zr1459     O1484   2.448       .  S
Zr1459     O1478   2.470   1_655  S
Zr1459     O1486   2.319       .  S
Zr1459     O1474   2.433       .  S
Zr1459     O1465   2.407       .  S
Zr1459     O1466   2.388       .  S
Zr1459     O1467   2.364       .  S
Zr1459     O1468   2.388   1_655  S
Zr1460     O1479   2.433       .  S
Zr1460     O1472   2.434       .  S
Zr1460     O1473   2.476       .  S
Zr1460     O1466   2.387       .  S
Zr1460     O1467   2.388       .  S
Zr1461     O1463   2.434       .  S
Zr1461     O1485   2.441   1_455  S
Zr1461     O1487   2.465   1_455  S
Zr1461     O1465   2.367   1_455  S
Zr1461     O1468   2.368       .  S
Zr1462     O1488   2.440       .  S
Zr1462     O1489   2.436       .  S
Zr1462     O1464   2.437       .  S
Zr1462     O1465   2.372       .  S
Zr1462     O1466   2.366       .  S
O1463      H1500   0.990       .  S
O1464      H1495   0.990       .  S
O1464      H1509   0.990       .  S
O1466      H1492   0.963       .  S
O1467     Zr1477   2.391   1_655  S
O1468     Zr1477   2.369       .  S
O1468      H1493   0.964       .  S
C1469      C2470   1.460       .  S
C1470      C2482   1.528       .  S
C1471      C2441   1.462   1_565  S
O1472      H1508   0.990       .  S
O1473      C1475   1.289       .  A
O1474      C1475   1.281       .  A
C1475      C2466   1.490       .  S
O1476     Zr1477   2.440       .  S
O1476      H1505   0.990       .  S
Zr1477     O1480   2.436       .  S
Zr1477     O1481   2.437       .  S
Zr1477     O1482   2.449       .  S
O1478      C1483   1.292       .  A
O1479      H1496   0.990   1_565  S
O1479      H1511   0.990   1_565  S
O1480      H1497   0.990       .  S
O1481      H1501   0.990       .  S
O1481      H1510   0.990       .  S
O1482      C1483   1.286       .  A
C1483      C2478   1.488       .  S
O1484      H1503   0.990       .  S
O1484      H1507   0.988       .  S
O1485      H1499   0.985       .  S
O1486      C1490   1.262       .  A
O1487      C1490   1.290       .  A
O1488      H1498   0.990   1_556  S
O1489      H1502   0.990       .  S
C1490      C2450   1.428       .  S
Zr1513     O1514   2.439       .  S
Zr1513     O1515   2.449       .  S
Zr1513     O1516   2.447       .  S
Zr1513     O1519   2.547       .  S
Zr1513     O1521   2.408       .  S
Zr1513     O1522   2.377       .  S
Zr1513     O1523   2.437       .  S
Zr1513     O1524   2.382       .  S
O1514      H1570   0.990       .  S
O1514      H1578   0.990       .  S
O1515      C1535   1.285       .  A
O1516      C1537   1.289       .  A
O1517     Zr1527   2.403       .  S
O1517      C1536   1.277       .  A
O1518     Zr1526   2.425       .  S
O1518      C1537   1.283       .  A
O1519      C1536   1.308       .  A
O1520     Zr1528   2.388       .  S
O1520      C1535   1.269       .  A
O1521     Zr1526   2.402       .  S
O1521     Zr1528   2.371       .  S
O1522     Zr1527   2.370       .  S
O1522     Zr1528   2.393       .  S
O1522      H1557   0.965       .  S
O1523     Zr1526   2.423       .  S
O1523     Zr1543   2.402       .  S
O1523      H1560   0.965       .  S
O1524     Zr1527   2.387       .  S
O1524     Zr1543   2.414       .  S
Zr1525     O1550   2.433       .  S
Zr1525     O1552   2.381       .  S
Zr1525     O1531   2.404       .  S
Zr1525     O1532   2.411       .  S
Zr1525     O1533   2.378       .  S
Zr1525     O1534   2.394       .  S
Zr1526     O1545   2.434       .  S
Zr1526     O1538   2.435       .  S
Zr1526     O1532   2.381       .  S
Zr1526     O1533   2.398       .  S
Zr1527     O1529   2.437       .  S
Zr1527     O1551   2.443       .  S
Zr1527     O1553   2.396       .  S
Zr1527     O1531   2.390       .  S
Zr1527     O1534   2.396       .  S
Zr1528     O1554   2.439       .  S
Zr1528     O1555   2.438       .  S
Zr1528     O1530   2.437       .  S
Zr1528     O1531   2.362       .  S
Zr1528     O1532   2.381       .  S
O1529      H1566   0.989       .  S
O1530      H1561   0.990       .  S
O1530      H1575   0.990       .  S
O1532      H1558   0.963       .  S
O1533     Zr1543   2.388       .  S
O1534     Zr1543   2.379       .  S
O1534      H1559   0.964       .  S
C1535      C2433   1.462       .  S
C1536      C2425   1.515       .  S
C1537      C2454   1.473       .  S
O1538      H1574   0.990       .  S
O1539      C1541   1.292       .  A
O1540      C1541   1.280       .  A
C1541      C2430   1.488       .  S
O1542     Zr1543   2.440       .  S
O1542      H1571   0.990       .  S
Zr1543     O1546   2.435       .  S
Zr1543     O1547   2.439       .  S
O1544      C1549   1.293       .  A
O1545      H1562   0.990       .  S
O1545      H1577   0.990       .  S
O1546      H1563   0.990       .  S
O1547      H1567   0.991       .  S
O1547      H1576   0.990       .  S
O1548      C1549   1.283       .  A
C1549      C2421   1.490       .  S
O1550      H1569   0.990       .  S
O1550      H1573   0.988       .  S
O1551      H1565   0.990       .  S
O1551      H1572   0.989       .  S
O1552      C1556   1.265       .  A
O1553      C1556   1.265       .  A
O1554      H1564   0.990       .  S
O1555      H1568   0.990       .  S
C1556      C2437   1.463       .  S
Zr1579     O1580   2.438       .  S
Zr1579     O1581   2.443       .  S
Zr1579     O1582   2.454       .  S
Zr1579     O1585   2.553       .  S
Zr1579     O1587   2.406       .  S
Zr1579     O1588   2.364       .  S
Zr1579     O1589   2.431       .  S
Zr1579     O1590   2.383       .  S
O1580      H1636   0.990       .  S
O1580      H1644   0.990       .  S
O1581      C1601   1.285       .  A
O1582      C1603   1.291       .  A
O1583     Zr1593   2.415       .  S
O1583      C1602   1.279       .  A
O1584     Zr1592   2.420       .  S
O1584      C1603   1.283       .  A
O1585      C1602   1.310       .  A
O1586     Zr1594   2.390       .  S
O1586      C1601   1.272       .  A
O1587     Zr1592   2.401       .  S
O1587     Zr1594   2.367       .  S
O1588     Zr1593   2.380       .  S
O1588     Zr1594   2.386       .  S
O1588      H1623   0.965       .  S
O1589     Zr1592   2.419       .  S
O1589     Zr1609   2.381       .  S
O1589      H1626   0.965       .  S
O1590     Zr1593   2.389       .  S
O1590     Zr1609   2.413       .  S
Zr1591     O1616   2.442       .  S
Zr1591     O1618   2.389       .  S
Zr1591     O1597   2.401       .  S
Zr1591     O1598   2.413       .  S
Zr1591     O1599   2.383       .  S
Zr1591     O1600   2.401       .  S
Zr1592     O1611   2.435       .  S
Zr1592     O1604   2.435       .  S
Zr1592     O1598   2.390       .  S
Zr1592     O1599   2.397       .  S
Zr1593     O1595   2.444       .  S
Zr1593     O1617   2.439       .  S
Zr1593     O1619   2.434       .  S
Zr1593     O1597   2.382       .  S
Zr1593     O1600   2.400       .  S
Zr1594     O1620   2.439       .  S
Zr1594     O1621   2.436       .  S
Zr1594     O1596   2.437       .  S
Zr1594     O1597   2.366       .  S
Zr1594     O1598   2.380       .  S
O1595      H1632   0.989       .  S
O1596      H1627   0.990       .  S
O1596      H1641   0.990       .  S
O1598      H1624   0.964       .  S
O1599     Zr1609   2.391       .  S
O1600     Zr1609   2.372       .  S
O1600      H1625   0.961       .  S
C1601      C2417   1.461       .  S
C1602      C2409   1.524       .  S
C1603      C2474   1.474       .  S
O1604      H1640   0.990       .  S
O1605      C1607   1.293       .  A
O1606      C1607   1.279       .  A
C1607      C2414   1.480       .  S
O1608     Zr1609   2.440       .  S
O1608      H1637   0.990       .  S
Zr1609     O1612   2.437       .  S
Zr1609     O1613   2.439       .  S
O1610      C1615   1.291       .  A
O1611      H1628   0.990       .  S
O1611      H1643   0.990       .  S
O1612      H1629   0.990       .  S
O1613      H1633   0.990       .  S
O1613      H1642   0.990       .  S
O1614      C1615   1.285       .  A
C1615      C2406   1.485       .  S
O1616      H1635   0.988       .  S
O1616      H1639   0.988       .  S
O1617      H1631   0.983       .  S
O1617      H1638   0.989       .  S
O1618      C1622   1.263       .  A
O1619      C1622   1.266       .  A
O1620      H1630   0.990       .  S
O1621      H1634   0.990       .  S
C1622      C2438   1.480       .  S
Zr1645     O1646   2.439       .  S
Zr1645     O1647   2.446       .  S
Zr1645     O1648   2.457       .  S
Zr1645     O1651   2.552       .  S
Zr1645     O1653   2.406       .  S
Zr1645     O1654   2.376       .  S
Zr1645     O1655   2.436       .  S
Zr1645     O1656   2.394       .  S
O1646      H1702   0.990       .  S
O1646      H1710   0.990       .  S
O1647      C1667   1.285       .  A
O1648      C1669   1.291       .  A
O1649     Zr1659   2.392       .  S
O1649      C1668   1.274       .  A
O1650     Zr1658   2.427       .  S
O1650      C1669   1.284       .  A
O1651      C1668   1.309       .  A
O1652     Zr1660   2.386       .  S
O1652      C1667   1.272       .  A
O1653     Zr1658   2.403       .  S
O1653     Zr1660   2.369       .  S
O1654     Zr1659   2.377       .  S
O1654     Zr1660   2.391       .  S
O1654      H1689   0.966       .  S
O1655     Zr1658   2.424       .  S
O1655     Zr1675   2.387       .  S
O1655      H1692   0.965       .  S
O1656     Zr1659   2.396       .  S
O1656     Zr1675   2.425       .  S
Zr1657     O1682   2.428       .  S
Zr1657     O1676   2.467       .  S
Zr1657     O1684   2.367       .  S
Zr1657     O1672   2.418       .  S
Zr1657     O1663   2.409       .  S
Zr1657     O1664   2.405       .  S
Zr1657     O1665   2.380       .  S
Zr1657     O1666   2.384       .  S
Zr1658     O1677   2.434       .  S
Zr1658     O1670   2.435       .  S
Zr1658     O1671   2.489       .  S
Zr1658     O1664   2.386       .  S
Zr1658     O1665   2.396       .  S
Zr1659     O1661   2.435       .  S
Zr1659     O1683   2.439       .  S
Zr1659     O1685   2.380       .  S
Zr1659     O1663   2.395       .  S
Zr1659     O1666   2.394       .  S
Zr1660     O1686   2.438       .  S
Zr1660     O1687   2.437       .  S
Zr1660     O1662   2.438       .  S
Zr1660     O1663   2.366       .  S
Zr1660     O1664   2.379       .  S
O1661      H1698   0.990       .  S
O1662      H1693   0.990       .  S
O1662      H1707   0.990       .  S
O1664      H1690   0.963       .  S
O1665     Zr1675   2.391       .  S
O1666     Zr1675   2.348       .  S
O1666      H1691   0.953       .  S
C1667      C2418   1.461       .  S
C1668      C2426   1.516       .  S
C1669      C2397   1.477       .  S
O1670      H1706   0.990       .  S
O1671      C1673   1.294       .  A
O1672      C1673   1.281       .  A
C1673      C2413   1.484       .  S
O1674     Zr1675   2.440       .  S
O1674      H1703   0.990       .  S
Zr1675     O1678   2.436       .  S
Zr1675     O1679   2.438       .  S
Zr1675     O1680   2.456       .  S
O1676      C1681   1.290       .  A
O1677      H1694   0.990       .  S
O1677      H1709   0.990       .  S
O1678      H1695   0.990       .  S
O1679      H1699   0.990       .  S
O1679      H1708   0.990       .  S
O1680      C1681   1.287       .  A
C1681      C2422   1.496       .  S
O1682      H1701   0.990       .  S
O1682      H1705   0.984       .  S
O1683      H1697   0.990       .  S
O1683      H1704   0.990       .  S
O1684      C1688   1.261       .  A
O1685      C1688   1.268       .  A
O1686      H1696   0.990       .  S
O1687      H1700   0.990       .  S
C1688      C2401   1.464       .  S
Zr1711     O1712   2.440       .  S
Zr1711     O1713   2.454       .  S
Zr1711     O1714   2.463       .  S
Zr1711     O1717   2.534       .  S
Zr1711     O1719   2.403       .  S
Zr1711     O1720   2.378       .  S
Zr1711     O1721   2.430       .  S
Zr1711     O1722   2.392       .  S
O1712      H1768   0.990       .  S
O1712      H1776   0.990       .  S
O1713      C1733   1.286       .  A
O1714      C1735   1.292       .  A
O1715     Zr1725   2.441       .  S
O1715      C1734   1.284       .  A
O1716     Zr1724   2.413       .  S
O1716      C1735   1.281       .  A
O1717      C1734   1.306       .  A
O1718     Zr1726   2.385       .  S
O1718      C1733   1.270       .  A
O1719     Zr1724   2.407       .  S
O1719     Zr1726   2.374       .  S
O1720     Zr1725   2.380       .  S
O1720     Zr1726   2.385       .  S
O1720      H1755   0.966       .  S
O1721     Zr1724   2.427       .  S
O1721     Zr1741   2.398       .  S
O1721      H1758   0.965       .  S
O1722     Zr1725   2.393       .  S
O1722     Zr1741   2.409       .  S
Zr1723     O1748   2.447       .  S
Zr1723     O1742   2.460       .  S
Zr1723     O1750   2.317       .  S
Zr1723     O1738   2.395       .  S
Zr1723     O1729   2.403       .  S
Zr1723     O1730   2.386       .  S
Zr1723     O1731   2.361       .  S
Zr1723     O1732   2.381       .  S
Zr1724     O1743   2.434       .  S
Zr1724     O1736   2.434       .  S
Zr1724     O1737   2.497       .  S
Zr1724     O1730   2.379       .  S
Zr1724     O1731   2.389       .  S
Zr1725     O1727   2.436       .  S
Zr1725     O1749   2.438       .  S
Zr1725     O1751   2.462       .  S
Zr1725     O1729   2.376       .  S
Zr1725     O1732   2.359       .  S
Zr1726     O1752   2.440       .  S
Zr1726     O1753   2.436       .  S
Zr1726     O1728   2.438       .  S
Zr1726     O1729   2.374       .  S
Zr1726     O1730   2.375       .  S
O1727      H1764   0.990       .  S
O1728      H1759   0.991       .  S
O1728      H1773   0.990       .  S
O1730      H1756   0.964       .  S
O1731     Zr1741   2.390       .  S
O1732     Zr1741   2.368       .  S
O1732      H1757   0.964       .  S
C1733      C2434   1.463       .  S
C1734      C2410   1.523       .  S
C1735      C2394   1.474   1_565  S
O1736      H1772   0.990       .  S
O1737      C1739   1.294       .  A
O1738      C1739   1.276       .  A
C1739      C2429   1.483       .  S
O1740     Zr1741   2.439       .  S
O1740      H1769   0.990       .  S
Zr1741     O1744   2.436       .  S
Zr1741     O1745   2.437       .  S
Zr1741     O1746   2.447       .  S
O1742      C1747   1.288       .  A
O1743      H1760   0.990   1_565  S
O1743      H1775   0.990       .  S
O1744      H1761   0.990       .  S
O1745      H1765   0.990       .  S
O1745      H1774   0.990       .  S
O1746      C1747   1.285       .  A
C1747      C2405   1.483       .  S
O1748      H1767   0.990       .  S
O1748      H1771   0.989       .  S
O1749      H1763   0.990       .  S
O1749      H1770   0.990       .  S
O1750      C1754   1.261       .  A
O1751      C1754   1.289       .  A
O1752      H1762   0.990       .  S
O1753      H1766   0.990       .  S
C1754      C2402   1.425       .  S
Zr1777     O1778   2.439       .  S
Zr1777     O1779   2.454       .  S
Zr1777     O1780   2.460       .  S
Zr1777     O1783   2.543       .  S
Zr1777     O1785   2.402       .  S
Zr1777     O1786   2.369       .  S
Zr1777     O1787   2.434       .  S
Zr1777     O1788   2.387       .  S
O1778      H1834   0.990       .  S
O1778      H1842   0.990       .  S
O1779      C1799   1.285       .  A
O1780      C1801   1.292       .  A
O1781     Zr1791   2.432       .  S
O1781      C1800   1.282       .  A
O1782     Zr1790   2.413       .  S
O1782      C1801   1.281       .  A
O1783      C1800   1.308       .  A
O1784     Zr1792   2.386       .  S
O1784      C1799   1.269       .  A
O1785     Zr1790   2.401       .  S
O1785     Zr1792   2.374       .  S
O1786     Zr1791   2.377       .  S
O1786     Zr1792   2.394       .  S
O1786      H1821   0.966       .  S
O1787     Zr1790   2.418       .  S
O1787     Zr1807   2.392       .  S
O1787      H1824   0.965       .  S
O1788     Zr1791   2.387       .  S
O1788     Zr1807   2.414       .  S
Zr1789     O1814   2.446       .  S
Zr1789     O1816   2.366       .  S
Zr1789     O1795   2.424   1_554  S
Zr1789     O1796   2.393   1_554  S
Zr1789     O1797   2.378       .  S
Zr1789     O1798   2.426   1_554  S
Zr1790     O1809   2.434   1_556  S
Zr1790     O1802   2.434       .  S
Zr1790     O1796   2.389       .  S
Zr1790     O1797   2.391   1_556  S
Zr1791     O1793   2.448       .  S
Zr1791     O1815   2.435       .  S
Zr1791     O1817   2.462       .  S
Zr1791     O1795   2.389       .  S
Zr1791     O1798   2.377       .  S
Zr1792     O1818   2.442       .  S
Zr1792     O1819   2.437       .  S
Zr1792     O1794   2.438       .  S
Zr1792     O1795   2.373       .  S
Zr1792     O1796   2.382       .  S
O1793      H1830   0.990       .  S
O1794      H1825   0.990       .  S
O1794      H1839   0.990       .  S
O1796      H1822   0.965       .  S
O1797     Zr1807   2.394   1_554  S
O1798     Zr1807   2.363       .  S
O1798      H1823   0.963       .  S
C1799      C2378   1.463       .  S
C1800      C2385   1.524       .  S
C1801      C2369   1.474       .  S
O1802      H1838   0.990       .  S
O1803      C1805   1.292       .  A
O1804      C1805   1.282       .  A
C1805      C2373   1.481       .  S
O1806     Zr1807   2.440       .  S
O1806      H1835   0.990       .  S
Zr1807     O1810   2.436   1_556  S
Zr1807     O1811   2.439       .  S
O1808      C1813   1.291       .  A
O1809      H1826   0.990       .  S
O1809      H1841   0.990   1_554  S
O1810      H1827   0.990       .  S
O1811      H1831   0.990       .  S
O1811      H1840   0.990       .  S
O1812      C1813   1.285       .  A
C1813      C2381   1.495       .  S
O1814      H1833   0.991       .  S
O1814      H1837   0.989       .  S
O1815      H1829   0.990       .  S
O1815      H1836   0.990       .  S
O1816      C1820   1.256   1_554  A
O1817      C1820   1.282       .  A
O1818      H1828   0.990       .  S
O1819      H1832   0.990       .  S
C1820      C2389   1.436       .  S
Zr1843     O1844   2.439       .  S
Zr1843     O1845   2.446       .  S
Zr1843     O1846   2.446       .  S
Zr1843     O1849   2.539       .  S
Zr1843     O1851   2.407       .  S
Zr1843     O1852   2.371       .  S
Zr1843     O1853   2.432       .  S
Zr1843     O1854   2.384       .  S
O1844      H1900   0.990       .  S
O1844      H1908   0.990       .  S
O1845      C1865   1.284       .  A
O1846      C1867   1.289       .  A
O1847     Zr1857   2.413       .  S
O1847      C1866   1.278       .  A
O1848     Zr1856   2.415       .  S
O1848      C1867   1.281       .  A
O1849      C1866   1.306       .  A
O1850     Zr1858   2.387       .  S
O1850      C1865   1.269       .  A
O1851     Zr1856   2.402       .  S
O1851     Zr1858   2.363       .  S
O1852     Zr1857   2.382       .  S
O1852     Zr1858   2.406       .  S
O1852      H1887   0.966       .  S
O1853     Zr1856   2.420       .  S
O1853     Zr1873   2.389       .  S
O1853      H1890   0.966       .  S
O1854     Zr1857   2.387       .  S
O1854     Zr1873   2.412       .  S
Zr1855     O1880   2.430   1_556  S
Zr1855     O1882   2.403       .  S
Zr1855     O1861   2.402       .  S
Zr1855     O1862   2.414       .  S
Zr1855     O1863   2.378       .  S
Zr1855     O1864   2.407       .  S
Zr1856     O1875   2.434   1_556  S
Zr1856     O1868   2.435       .  S
Zr1856     O1862   2.392       .  S
Zr1856     O1863   2.400       .  S
Zr1857     O1859   2.440       .  S
Zr1857     O1881   2.440       .  S
Zr1857     O1883   2.417       .  S
Zr1857     O1861   2.371       .  S
Zr1857     O1864   2.400       .  S
Zr1858     O1884   2.441       .  S
Zr1858     O1885   2.437       .  S
Zr1858     O1860   2.437       .  S
Zr1858     O1861   2.338       .  S
Zr1858     O1862   2.393       .  S
O1859      H1896   0.990       .  S
O1860      H1891   0.990       .  S
O1860      H1905   0.990       .  S
O1862      H1888   0.964       .  S
O1863     Zr1873   2.395       .  S
O1864     Zr1873   2.384       .  S
O1864      H1889   0.963       .  S
C1865      C2357   1.460       .  S
C1866      C2366   1.516       .  S
C1867      C2350   1.467       .  S
O1868      H1904   0.990       .  S
O1869      C1871   1.293       .  A
O1870      C1871   1.280       .  A
C1871      C2353   1.485       .  S
O1872     Zr1873   2.440       .  S
O1872      H1901   0.990       .  S
Zr1873     O1876   2.437   1_556  S
Zr1873     O1877   2.438       .  S
O1874      C1879   1.289       .  A
O1875      H1892   0.990       .  S
O1875      H1907   0.990   1_554  S
O1876      H1893   0.990       .  S
O1877      H1897   0.990       .  S
O1877      H1906   0.990       .  S
O1878      C1879   1.286       .  A
C1879      C2362   1.486       .  S
O1880      H1899   0.991       .  S
O1880      H1903   0.988       .  S
O1881      H1895   0.990       .  S
O1881      H1902   0.990       .  S
O1882      C1886   1.261       .  A
O1883      C1886   1.264       .  A
O1884      H1894   0.990       .  S
O1885      H1898   0.990       .  S
C1886      C2390   1.428       .  S
Zr1909     O1910   2.438       .  S
Zr1909     O1911   2.447       .  S
Zr1909     O1912   2.455       .  S
Zr1909     O1915   2.539       .  S
Zr1909     O1917   2.407       .  S
Zr1909     O1918   2.377       .  S
Zr1909     O1919   2.434       .  S
Zr1909     O1920   2.386       .  S
O1910      H1966   0.990       .  S
O1910      H1974   0.990       .  S
O1911      C1931   1.283       .  A
O1912      C1933   1.291       .  A
O1913     Zr1923   2.413       .  S
O1913      C1932   1.278       .  A
O1914     Zr1922   2.420       .  S
O1914      C1933   1.282       .  A
O1915      C1932   1.307       .  A
O1916     Zr1924   2.387       .  S
O1916      C1931   1.268       .  A
O1917     Zr1922   2.402       .  S
O1917     Zr1924   2.369       .  S
O1918     Zr1923   2.377       .  S
O1918     Zr1924   2.404       .  S
O1918      H1953   0.966       .  S
O1919     Zr1922   2.420       .  S
O1919     Zr1939   2.394       .  S
O1919      H1956   0.966       .  S
O1920     Zr1923   2.389       .  S
O1920     Zr1939   2.414       .  S
Zr1921     O1946   2.451       .  S
Zr1921     O1940   2.477       .  S
Zr1921     O1948   2.387       .  S
Zr1921     O1936   2.402       .  S
Zr1921     O1927   2.412       .  S
Zr1921     O1928   2.404       .  S
Zr1921     O1929   2.381       .  S
Zr1921     O1930   2.410       .  S
Zr1922     O1941   2.434       .  S
Zr1922     O1934   2.434       .  S
Zr1922     O1935   2.478       .  S
Zr1922     O1928   2.386       .  S
Zr1922     O1929   2.391       .  S
Zr1923     O1925   2.440       .  S
Zr1923     O1947   2.437       .  S
Zr1923     O1949   2.419       .  S
Zr1923     O1927   2.381       .  S
Zr1923     O1930   2.379       .  S
Zr1924     O1950   2.442       .  S
Zr1924     O1951   2.438       .  S
Zr1924     O1926   2.438       .  S
Zr1924     O1927   2.351       .  S
Zr1924     O1928   2.392       .  S
O1925      H1962   0.990       .  S
O1926      H1957   0.990       .  S
O1926      H1971   0.990       .  S
O1928      H1954   0.965       .  S
O1929     Zr1939   2.390       .  S
O1930     Zr1939   2.370       .  S
O1930      H1955   0.960       .  S
C1931      C2377   1.462       .  S
C1932      C2365   1.516       .  S
C1933      C2393   1.475       .  S
O1934      H1970   0.990       .  S
O1935      C1937   1.291       .  A
O1936      C1937   1.279       .  A
C1937      C2374   1.477       .  S
O1938     Zr1939   2.440       .  S
O1938      H1967   0.990       .  S
Zr1939     O1942   2.436       .  S
Zr1939     O1943   2.438       .  S
Zr1939     O1944   2.440       .  S
O1940      C1945   1.293       .  A
O1941      H1958   0.990       .  S
O1941      H1973   0.990       .  S
O1942      H1959   0.990       .  S
O1943      H1963   0.990       .  S
O1943      H1972   0.990       .  S
O1944      C1945   1.285       .  A
C1945      C2361   1.492       .  S
O1946      H1965   0.990       .  S
O1946      H1969   0.988       .  S
O1947      H1961   0.990       .  S
O1947      H1968   0.990       .  S
O1948      C1952   1.262       .  A
O1949      C1952   1.265       .  A
O1950      H1960   0.990       .  S
O1951      H1964   0.990       .  S
C1952      C2346   1.428       .  S
Zr1975     O1976   2.438       .  S
Zr1975     O1977   2.446       .  S
Zr1975     O1978   2.455       .  S
Zr1975     O1981   2.546       .  S
Zr1975     O1983   2.403       .  S
Zr1975     O1984   2.371       .  S
Zr1975     O1985   2.436       .  S
Zr1975     O1986   2.386       .  S
O1976      H2032   0.990       .  S
O1976      H2040   0.990       .  S
O1977      C1997   1.284       .  A
O1978      C1999   1.291       .  A
O1979     Zr1989   2.426       .  S
O1979      C1998   1.281       .  A
O1980     Zr1988   2.425       .  S
O1980      C1999   1.283       .  A
O1981      C1998   1.308       .  A
O1982     Zr1990   2.390       .  S
O1982      C1997   1.269       .  A
O1983     Zr1988   2.402       .  S
O1983     Zr1990   2.371       .  S
O1984     Zr1989   2.378       .  S
O1984     Zr1990   2.394       .  S
O1984      H2019   0.966       .  S
O1985     Zr1988   2.421       .  S
O1985     Zr2005   2.397       .  S
O1985      H2022   0.966       .  S
O1986     Zr1989   2.391       .  S
O1986     Zr2005   2.418       .  S
Zr1987     O2012   2.445       .  S
Zr1987     O2006   2.469       .  S
Zr1987     O2014   2.366       .  S
Zr1987     O2002   2.410       .  S
Zr1987     O1993   2.422       .  S
Zr1987     O1994   2.392       .  S
Zr1987     O1995   2.380       .  S
Zr1987     O1996   2.422       .  S
Zr1988     O2007   2.434       .  S
Zr1988     O2000   2.434       .  S
Zr1988     O2001   2.484       .  S
Zr1988     O1994   2.390       .  S
Zr1988     O1995   2.393       .  S
Zr1989     O1991   2.450       .  S
Zr1989     O2013   2.435       .  S
Zr1989     O2015   2.472       .  S
Zr1989     O1993   2.386       .  S
Zr1989     O1996   2.360       .  S
Zr1990     O2016   2.441       .  S
Zr1990     O2017   2.438       .  S
Zr1990     O1992   2.439       .  S
Zr1990     O1993   2.373       .  S
Zr1990     O1994   2.380       .  S
O1991      H2028   0.990       .  S
O1992      H2023   0.990       .  S
O1992      H2037   0.990       .  S
O1994      H2020   0.964       .  S
O1995     Zr2005   2.397       .  S
O1996     Zr2005   2.366       .  S
O1996      H2021   0.960       .  S
C1997      C2358   1.462       .  S
C1998      C2386   1.524       .  S
C1999      C2398   1.475       .  S
O2000      H2036   0.990       .  S
O2001      C2003   1.291       .  A
O2002      C2003   1.279       .  A
C2003      C2354   1.485       .  S
O2004     Zr2005   2.440       .  S
O2004      H2033   0.990       .  S
Zr2005     O2008   2.436       .  S
Zr2005     O2009   2.439       .  S
Zr2005     O2010   2.450       .  S
O2006      C2011   1.293       .  A
O2007      H2024   0.990       .  S
O2007      H2039   0.990       .  S
O2008      H2025   0.990       .  S
O2009      H2029   0.990       .  S
O2009      H2038   0.990       .  S
O2010      C2011   1.286       .  A
C2011      C2382   1.487       .  S
O2012      H2031   0.991       .  S
O2012      H2035   0.987       .  S
O2013      H2027   0.990       .  S
O2013      H2034   0.990       .  S
O2014      C2018   1.256       .  A
O2015      C2018   1.285       .  A
O2016      H2026   0.990       .  S
O2017      H2030   0.990       .  S
C2018      C2345   1.433       .  S
Zr2041     O2042   2.439       .  S
Zr2041     O2043   2.451       .  S
Zr2041     O2044   2.447       .  S
Zr2041     O2047   2.558       .  S
Zr2041     O2049   2.409       .  S
Zr2041     O2050   2.374       .  S
Zr2041     O2051   2.440       .  S
Zr2041     O2052   2.385       .  S
O2042      H2098   0.990       .  S
O2042      H2106   0.990       .  S
O2043      C2063   1.285       .  A
O2044      C2065   1.290       .  A
O2045     Zr2055   2.403       .  S
O2045      C2064   1.276       .  A
O2046     Zr2054   2.415       .  S
O2046      C2065   1.282       .  A
O2047      C2064   1.311       .  A
O2048     Zr2056   2.386       .  S
O2048      C2063   1.269       .  A
O2049     Zr2054   2.404       .  S
O2049     Zr2056   2.369       .  S
O2050     Zr2055   2.372       .  S
O2050     Zr2056   2.393       .  S
O2050      H2085   0.966       .  S
O2051     Zr2054   2.429       .  S
O2051     Zr2071   2.394       .  S
O2051      H2088   0.965       .  S
O2052     Zr2055   2.394       .  S
O2052     Zr2071   2.425       .  S
Zr2053     O2078   2.432       .  S
Zr2053     O2072   2.455       .  S
Zr2053     O2080   2.368       .  S
Zr2053     O2068   2.411       .  S
Zr2053     O2059   2.414       .  S
Zr2053     O2060   2.398       .  S
Zr2053     O2061   2.375       .  S
Zr2053     O2062   2.383       .  S
Zr2054     O2073   2.434       .  S
Zr2054     O2066   2.434       .  S
Zr2054     O2067   2.500       .  S
Zr2054     O2060   2.379       .  S
Zr2054     O2061   2.391       .  S
Zr2055     O2057   2.436       .  S
Zr2055     O2079   2.438       .  S
Zr2055     O2081   2.387       .  S
Zr2055     O2059   2.405       .  S
Zr2055     O2062   2.384       .  S
Zr2056     O2082   2.440       .  S
Zr2056     O2083   2.437       .  S
Zr2056     O2058   2.438       .  S
Zr2056     O2059   2.369       .  S
Zr2056     O2060   2.378       .  S
O2057      H2094   0.986       .  S
O2058      H2089   0.990       .  S
O2058      H2103   0.990       .  S
O2060      H2086   0.963       .  S
O2061     Zr2071   2.396       .  S
O2062     Zr2071   2.348       .  S
O2062      H2087   0.951       .  S
C2063      C2329   1.462       .  S
C2064      C2334   1.522       .  S
C2065      C2349   1.468       .  S
O2066      H2102   0.990       .  S
O2067      C2069   1.296       .  A
O2068      C2069   1.280       .  A
C2069      C2326   1.489       .  S
O2070     Zr2071   2.439       .  S
O2070      H2099   0.990       .  S
Zr2071     O2074   2.436       .  S
Zr2071     O2075   2.438       .  S
Zr2071     O2076   2.462       .  S
O2072      C2077   1.288       .  A
O2073      H2090   0.990       .  S
O2073      H2105   0.990       .  S
O2074      H2091   0.990       .  S
O2075      H2095   0.990       .  S
O2075      H2104   0.990       .  S
O2076      C2077   1.287       .  A
C2077      C2338   1.489       .  S
O2078      H2097   0.988       .  S
O2078      H2101   0.990       .  S
O2079      H2093   0.990       .  S
O2079      H2100   0.990       .  S
O2080      C2084   1.261       .  A
O2081      C2084   1.270       .  A
O2082      H2092   0.990       .  S
O2083      H2096   0.990       .  S
C2084      C2341   1.471       .  S
Zr2107     O2108   2.438       .  S
Zr2107     O2109   2.444       .  S
Zr2107     O2110   2.468       .  S
Zr2107     O2113   2.552       .  S
Zr2107     O2115   2.405       .  S
Zr2107     O2116   2.371       .  S
Zr2107     O2117   2.432       .  S
Zr2107     O2118   2.391       .  S
O2108      H2164   0.990       .  S
O2108      H2172   0.990       .  S
O2109      C2129   1.286       .  A
O2110      C2131   1.293       .  A
O2111     Zr2121   2.445       .  S
O2111      C2130   1.284       .  A
O2112     Zr2120   2.406       .  S
O2112      C2131   1.280       .  A
O2113      C2130   1.310       .  A
O2114     Zr2122   2.387       .  S
O2114      C2129   1.273       .  A
O2115     Zr2120   2.412       .  S
O2115     Zr2122   2.370       .  S
O2116     Zr2121   2.379       .  S
O2116     Zr2122   2.381       .  S
O2116      H2151   0.966       .  S
O2117     Zr2120   2.431       .  S
O2117     Zr2137   2.394       .  S
O2117      H2154   0.965       .  S
O2118     Zr2121   2.396       .  S
O2118     Zr2137   2.412       .  S
Zr2119     O2144   2.443       .  S
Zr2119     O2138   2.461       .  S
Zr2119     O2146   2.301       .  S
Zr2119     O2134   2.392       .  S
Zr2119     O2125   2.402       .  S
Zr2119     O2126   2.386       .  S
Zr2119     O2127   2.357       .  S
Zr2119     O2128   2.380       .  S
Zr2120     O2139   2.433       .  S
Zr2120     O2132   2.435       .  S
Zr2120     O2133   2.510       .  S
Zr2120     O2126   2.372       .  S
Zr2120     O2127   2.386       .  S
Zr2121     O2123   2.436       .  S
Zr2121     O2145   2.440       .  S
Zr2121     O2147   2.472       .  S
Zr2121     O2125   2.369       .  S
Zr2121     O2128   2.365       .  S
Zr2122     O2148   2.438       .  S
Zr2122     O2149   2.436       .  S
Zr2122     O2124   2.437       .  S
Zr2122     O2125   2.375       .  S
Zr2122     O2126   2.374       .  S
O2123      H2160   0.990       .  S
O2124      H2155   0.990       .  S
O2124      H2169   0.990       .  S
O2126      H2152   0.964       .  S
O2127     Zr2137   2.389       .  S
O2128     Zr2137   2.366       .  S
O2128      H2153   0.964       .  S
C2129      C2314   1.462       .  S
C2130      C2321   1.534       .  S
C2131      C2370   1.471       .  S
O2132      H2168   0.990       .  S
O2133      C2135   1.296       .  A
O2134      C2135   1.276       .  A
C2135      C2309   1.486       .  S
O2136     Zr2137   2.440       .  S
O2136      H2165   0.990       .  S
Zr2137     O2140   2.436       .  S
Zr2137     O2141   2.437       .  S
Zr2137     O2142   2.452       .  S
O2138      C2143   1.290       .  A
O2139      H2156   0.990       .  S
O2139      H2171   0.990       .  S
O2140      H2157   0.990       .  S
O2141      H2161   0.990       .  S
O2141      H2170   0.990       .  S
O2142      C2143   1.286       .  A
C2143      C2317   1.487       .  S
O2144      H2163   0.990       .  S
O2144      H2167   0.987       .  S
O2145      H2159   0.990       .  S
O2145      H2166   0.989       .  S
O2146      C2150   1.257       .  A
O2147      C2150   1.291       .  A
O2148      H2158   0.990       .  S
O2149      H2162   0.990       .  S
C2150      C2342   1.428   1_655  S
Zr2173     O2174   2.439   1_655  S
Zr2173     O2176   2.447       .  S
Zr2173     O2181   2.411       .  S
Zr2173     O2182   2.364       .  S
Zr2173     O2183   2.437       .  S
Zr2173     O2184   2.381   1_655  S
O2174      H2238   0.990       .  S
O2175      C2195   1.286       .  A
O2176      C2197   1.291       .  A
O2177      C2196   1.274       .  A
O2178     Zr2186   2.422       .  S
O2178      C2197   1.283       .  A
O2179      C2196   1.313       .  A
O2180      C2195   1.273       .  A
O2181     Zr2186   2.409       .  S
O2181     Zr2188   2.365       .  S
O2182     Zr2187   2.374   1_655  S
O2182     Zr2188   2.388       .  S
O2183     Zr2186   2.429       .  S
O2183     Zr2203   2.377   1_655  S
O2183      H2220   0.965   1_655  S
O2184     Zr2187   2.392       .  S
O2184     Zr2203   2.421       .  S
Zr2185     O2210   2.433       .  S
Zr2185     O2204   2.481   1_655  S
Zr2185     O2212   2.369       .  S
Zr2185     O2200   2.435       .  S
Zr2185     O2191   2.414       .  S
Zr2185     O2192   2.411       .  S
Zr2185     O2193   2.379       .  S
Zr2185     O2194   2.386   1_655  S
Zr2186     O2205   2.434       .  S
Zr2186     O2198   2.435       .  S
Zr2186     O2199   2.497       .  S
Zr2186     O2192   2.383       .  S
Zr2186     O2193   2.397       .  S
Zr2187     O2189   2.437       .  S
Zr2187     O2211   2.441   1_455  S
Zr2187     O2213   2.376       .  S
Zr2187     O2191   2.392   1_455  S
Zr2187     O2194   2.400       .  S
Zr2188     O2214   2.437       .  S
Zr2188     O2215   2.436       .  S
Zr2188     O2190   2.438       .  S
Zr2188     O2191   2.372       .  S
Zr2188     O2192   2.376       .  S
O2189      H2226   0.987       .  S
O2190      H2221   0.990       .  S
O2190      H2235   0.990       .  S
O2192      H2218   0.962       .  S
O2193     Zr2203   2.397   1_655  S
O2194     Zr2203   2.350       .  S
O2194      H2219   0.954       .  S
C2195      C2313   1.462       .  S
C2196      C2333   1.522       .  S
C2197      C2442   1.470       .  S
O2198      H2234   0.990       .  S
O2199      C2201   1.296       .  A
O2200      C2201   1.284       .  A
C2201      C2310   1.492       .  S
O2202     Zr2203   2.439       .  S
O2202      H2231   0.990       .  S
Zr2203     O2206   2.436       .  S
Zr2203     O2207   2.438       .  S
Zr2203     O2208   2.441       .  S
O2204      C2209   1.293       .  A
O2205      H2222   0.990       .  S
O2205      H2237   0.990       .  S
O2206      H2223   0.990       .  S
O2207      H2227   0.990       .  S
O2207      H2236   0.990       .  S
O2208      C2209   1.283       .  A
C2209      C2337   1.496       .  S
O2210      H2229   0.988       .  S
O2210      H2233   0.987       .  S
O2211      H2225   0.990       .  S
O2212      C2216   1.262       .  A
O2213      C2216   1.267   1_455  A
O2214      H2224   0.990       .  S
O2215      H2228   0.990       .  S
C2216      C2305   1.467   1_655  S
Zr2239     O2240   2.439   1_455  S
Zr2239     O2242   2.455       .  S
Zr2239     O2247   2.408       .  S
Zr2239     O2248   2.368       .  S
Zr2239     O2249   2.433       .  S
Zr2239     O2250   2.388   1_455  S
O2240      H2304   0.990       .  S
O2241      C2261   1.285       .  A
O2242      C2263   1.291       .  A
O2243      C2262   1.286       .  A
O2244     Zr2252   2.405       .  S
O2244      C2263   1.280       .  A
O2245      C2262   1.309       .  A
O2246      C2261   1.271       .  A
O2247     Zr2252   2.407       .  S
O2247     Zr2254   2.372       .  S
O2248     Zr2253   2.371       .  S
O2248     Zr2254   2.384       .  S
O2248      H2283   0.965       .  S
O2249     Zr2252   2.428       .  S
O2249     Zr2269   2.401   1_455  S
O2249      H2286   0.966       .  S
O2250     Zr2253   2.392   1_655  S
O2250     Zr2269   2.413       .  S
Zr2251     O2276   2.450       .  S
Zr2251     O2270   2.463       .  S
Zr2251     O2278   2.314       .  S
Zr2251     O2266   2.397       .  S
Zr2251     O2257   2.399       .  S
Zr2251     O2258   2.387       .  S
Zr2251     O2259   2.359       .  S
Zr2251     O2260   2.383       .  S
Zr2252     O2271   2.433       .  S
Zr2252     O2264   2.435       .  S
Zr2252     O2265   2.497       .  S
Zr2252     O2258   2.375       .  S
Zr2252     O2259   2.387       .  S
Zr2253     O2255   2.435   1_455  S
Zr2253     O2277   2.441       .  S
Zr2253     O2279   2.462       .  S
Zr2253     O2257   2.376       .  S
Zr2253     O2260   2.369       .  S
Zr2254     O2280   2.441       .  S
Zr2254     O2281   2.437       .  S
Zr2254     O2256   2.437       .  S
Zr2254     O2257   2.371       .  S
Zr2254     O2258   2.379       .  S
O2255      H2292   0.990       .  S
O2256      H2287   0.991       .  S
O2256      H2301   0.990       .  S
O2258      H2284   0.965       .  S
O2259     Zr2269   2.388   1_455  S
O2260     Zr2269   2.371   1_455  S
O2260      H2285   0.964   1_455  S
C2261      C2330   1.461       .  S
C2262      C2322   1.534       .  S
C2263      C2446   1.467       .  S
O2264      H2300   0.990       .  S
O2265      C2267   1.294       .  A
O2266      C2267   1.277       .  A
C2267      C2325   1.483       .  S
O2268     Zr2269   2.439       .  S
O2268      H2297   0.990       .  S
Zr2269     O2272   2.436       .  S
Zr2269     O2273   2.437       .  S
Zr2269     O2274   2.452       .  S
O2270      C2275   1.290   1_455  A
O2271      H2288   0.990       .  S
O2271      H2303   0.990       .  S
O2272      H2289   0.990       .  S
O2273      H2293   0.990       .  S
O2273      H2302   0.990       .  S
O2274      C2275   1.286       .  A
C2275      C2318   1.494       .  S
O2276      H2295   0.990       .  S
O2276      H2299   0.989       .  S
O2277      H2291   0.984       .  S
O2278      C2282   1.262       .  A
O2279      C2282   1.290       .  A
O2280      H2290   0.990       .  S
O2281      H2294   0.990       .  S
C2282      C2306   1.427       .  S
C2305      C2306   1.337       .  D
C2305      H2307   1.087       .  S
C2306      H2308   1.080       .  S
C2309      C2310   1.360       .  D
C2309      H2311   1.087       .  S
C2310      H2312   1.086       .  S
C2313      C2314   1.350       .  D
C2313      H2315   1.086       .  S
C2314      H2316   1.086       .  S
C2317      C2318   1.354       .  D
C2317      H2319   1.086       .  S
C2318      H2320   1.086       .  S
C2321      C2322   1.381       .  D
C2321      H2323   1.086       .  S
C2322      H2324   1.086       .  S
C2325      C2326   1.359       .  D
C2325      H2327   1.087       .  S
C2326      H2328   1.086       .  S
C2329      C2330   1.350       .  D
C2329      H2331   1.085       .  S
C2330      H2332   1.085       .  S
C2333      C2334   1.383       .  D
C2333      H2335   1.086       .  S
C2334      H2336   1.086       .  S
C2337      C2338   1.349       .  D
C2337      H2339   1.086       .  S
C2338      H2340   1.079       .  S
C2341      C2342   1.334       .  D
C2341      H2343   1.084       .  S
C2342      H2344   1.081       .  S
C2345      C2346   1.316       .  D
C2345      H2347   1.087       .  S
C2346      H2348   1.081       .  S
C2349      C2350   1.337       .  D
C2349      H2351   1.087       .  S
C2350      H2352   1.087       .  S
C2353      C2354   1.357       .  D
C2353      H2355   1.086       .  S
C2354      H2356   1.087       .  S
C2357      C2358   1.349       .  D
C2357      H2359   1.085       .  S
C2358      H2360   1.085       .  S
C2361      C2362   1.354       .  D
C2361      H2363   1.083       .  S
C2362      H2364   1.086       .  S
C2365      C2366   1.376       .  D
C2365      H2367   1.086       .  S
C2366      H2368   1.086       .  S
C2369      C2370   1.335       .  D
C2369      H2371   1.087       .  S
C2370      H2372   1.087       .  S
C2373      C2374   1.355       .  D
C2373      H2375   1.086       .  S
C2374      H2376   1.087       .  S
C2377      C2378   1.351       .  D
C2377      H2379   1.085       .  S
C2378      H2380   1.084       .  S
C2381      C2382   1.351       .  D
C2381      H2383   1.086       .  S
C2382      H2384   1.080       .  S
C2385      C2386   1.378       .  D
C2385      H2387   1.086       .  S
C2386      H2388   1.086       .  S
C2389      C2390   1.316       .  D
C2389      H2391   1.087   1_556  S
C2390      H2392   1.082       .  S
C2393      C2394   1.338       .  D
C2393      H2395   1.087       .  S
C2394      H2396   1.088       .  S
C2397      C2398   1.340       .  D
C2397      H2399   1.087       .  S
C2398      H2400   1.087       .  S
C2401      C2402   1.335       .  D
C2401      H2403   1.087       .  S
C2402      H2404   1.079       .  S
C2405      C2406   1.354       .  D
C2405      H2407   1.086       .  S
C2406      H2408   1.087       .  S
C2409      C2410   1.378       .  D
C2409      H2411   1.086       .  S
C2410      H2412   1.086       .  S
C2413      C2414   1.357       .  D
C2413      H2415   1.086       .  S
C2414      H2416   1.087       .  S
C2417      C2418   1.349       .  D
C2417      H2419   1.086       .  S
C2418      H2420   1.086       .  S
C2421      C2422   1.353       .  D
C2421      H2423   1.081       .  S
C2422      H2424   1.086       .  S
C2425      C2426   1.378       .  D
C2425      H2427   1.086       .  S
C2426      H2428   1.086       .  S
C2429      C2430   1.359       .  D
C2429      H2431   1.087       .  S
C2430      H2432   1.086       .  S
C2433      C2434   1.351       .  D
C2433      H2435   1.085       .  S
C2434      H2436   1.084       .  S
C2437      C2438   1.347       .  D
C2437      H2439   1.079       .  S
C2438      H2440   1.082       .  S
C2441      H2443   1.088       .  S
C2442      H2444   1.087       .  S
C2445      H2447   1.087       .  S
C2446      H2448   1.087       .  S
C2449      C2450   1.331   1_455  D
C2449      H2451   1.086       .  S
C2450      H2452   1.081       .  S
C2453      C2454   1.341       .  D
C2453      H2455   1.087       .  S
C2454      H2456   1.087       .  S
C2457      C2458   1.350       .  D
C2457      H2459   1.078       .  S
C2458      H2460   1.086       .  S
C2461      C2462   1.378       .  D
C2461      H2463   1.086       .  S
C2462      H2464   1.086       .  S
C2465      C2466   1.343       .  D
C2465      H2467   1.086       .  S
C2466      H2468   1.086       .  S
C2469      C2470   1.350       .  D
C2469      H2471   1.085       .  S
C2470      H2472   1.085       .  S
C2473      C2474   1.337       .  D
C2473      H2475   1.087       .  S
C2474      H2476   1.087       .  S
C2477      C2478   1.356       .  D
C2477      H2479   1.087       .  S
C2478      H2480   1.086       .  S
C2481      C2482   1.378       .  D
C2481      H2483   1.086       .  S
C2482      H2484   1.086       .  S
C2485      C2486   1.350       .  D
C2485      H2487   1.085       .  S
C2486      H2488   1.085       .  S
C2489      C2490   1.359       .  D
C2489      H2491   1.087       .  S
C2490      H2492   1.086       .  S
C2493      C2494   1.339       .  D
C2493      H2495   1.087   1_655  S
C2494      H2496   1.078       .  S
