geometry optimzed in LAMMPS
_audit_creation_date              2020-12-01 
_audit_creation_method            'lammps2cif' 
_symmetry_space_group_name_H-M    'P1' 
_symmetry_Int_Tables_number       1 
_symmetry_cell_setting            triclinic 
loop_ 
_symmetry_equiv_pos_as_xyz 
  x,y,z 
_cell_length_a                    26.4642779 
_cell_length_b                    26.47099295142466 
_cell_length_c                    49.90118205776159 
_cell_angle_alpha                 89.89680420012137 
_cell_angle_beta                  89.82750903687155 
_cell_angle_gamma                 90.14210912778755 
loop_ 
_atom_site_label 
_atom_site_type_symbol 
_atom_site_fract_x 
_atom_site_fract_y 
_atom_site_fract_z 
_atom_site_charge 
O1          O  0.98373881  0.78275548  0.63684286    -0.85200
O2          O  0.89378504  0.79118295  0.61007817    -0.82300
C3          C  0.84800469  0.78447141  0.60420274     0.98200
O4          O  0.81569258  0.77473048  0.62227473    -0.82300
O5          O  0.83839193  0.67884155  0.63614474    -0.85000
C6          C  0.86176300  0.64128813  0.64508156     1.02800
O7          O  0.89349441  0.64657970  0.66390928    -0.77700
O8          O  0.97131845  0.70174234  0.64128159    -0.77900
C9          C  0.99403126  0.73793891  0.63001034     1.02700
O10         O  0.93810244  0.83271242  0.68213164    -0.85200
O11         O  0.85187545  0.85031305  0.65248639    -0.82300
C12         C  0.81458764  0.84321078  0.66801755     0.98200
O13         O  0.80662396  0.80026514  0.67809533    -0.82300
O14         O  0.82184737  0.70012626  0.69225281    -0.84900
C15         C  0.85127154  0.69934067  0.71229945     1.02700
O16         O  0.89670494  0.71282228  0.70970323    -0.77700
O17         O  0.98005266  0.76267849  0.68976278    -0.77900
C18         C  0.97076927  0.80862795  0.69529242     1.02700
Cr19       Cr  0.91517318  0.81013947  0.64651965     1.93700
Cr20       Cr  0.82569894  0.73952813  0.65758292     1.93200
Cr21       Cr  0.93257456  0.70926699  0.67500826     1.39100
O22         O  0.89098521  0.75311742  0.65996108    -1.23000
O23         O  0.27207046  0.53822634  0.37249333    -0.85200
O24         O  0.30962720  0.63388196  0.37529509    -0.82300
C25         C  0.27546690  0.65773854  0.36305286     0.98200
O26         O  0.23457200  0.66818405  0.37492575    -0.82300
O27         O  0.15357065  0.65642483  0.40919891    -0.85000
C28         C  0.13051531  0.62305461  0.39607107     1.02800
O29         O  0.14685604  0.57842618  0.39556866    -0.77700
O30         O  0.21446779  0.49993448  0.39680917    -0.77900
C31         C  0.23976077  0.50359452  0.37534812     1.02700
O32         O  0.30660113  0.51800635  0.42603013    -0.85200
O33         O  0.33843308  0.61760154  0.42990682    -0.82300
C34         C  0.33734789  0.66520258  0.42871993     0.98200
O35         O  0.29855977  0.68690928  0.41965076    -0.82300
O36         O  0.21977028  0.66145861  0.45380801    -0.84900
C37         C  0.18513788  0.63545781  0.46457772     1.02700
O38         O  0.16595096  0.59812459  0.45220160    -0.77700
O39         O  0.23893524  0.52391815  0.45138867    -0.77900
C40         C  0.28198253  0.50533032  0.44673020     1.02700
Cr41       Cr  0.30198404  0.57817672  0.40199227     1.93700
Cr42       Cr  0.22781442  0.66325474  0.41442206     1.93200
Cr43       Cr  0.19510370  0.55355498  0.42329010     1.39100
O44         O  0.24190752  0.59797176  0.41352149    -1.23000
O45         O  0.00775441  0.23067276  0.12464634    -0.85200
O46         O  0.10437183  0.19723000  0.12017988    -0.82300
C47         C  0.12892782  0.23378361  0.11015543     0.98200
O48         O  0.14011340  0.27202537  0.12403691    -0.82300
O49         O  0.12949704  0.34510235  0.16309038    -0.85000
C50         C  0.09325222  0.36980931  0.15352252     1.02800
O51         O  0.04908365  0.35201516  0.15408254    -0.77700
O52         O  0.97257274  0.28190508  0.15349940    -0.77900
C53         C  0.97422220  0.26260993  0.13034304     1.02700
O54         O  0.99788700  0.18291968  0.17652753    -0.85200
O55         O  0.09819638  0.15520643  0.17341398    -0.82300
C56         C  0.14558936  0.15927046  0.17163669     0.98200
O57         O  0.16510273  0.20039298  0.16418916    -0.82300
O58         O  0.14298555  0.27157891  0.20359230    -0.84900
C59         C  0.11771126  0.30338408  0.21693107     1.02700
O60         O  0.07696788  0.32104652  0.20750706    -0.77700
O61         O  0.00546603  0.24487418  0.20536622    -0.77900
C62         C  0.98904718  0.20145036  0.19943849     1.02700
Cr63       Cr  0.05349340  0.19625752  0.15003212     1.93700
Cr64       Cr  0.13898756  0.27069281  0.16386018     1.93200
Cr65       Cr  0.02944279  0.29639882  0.17902711     1.39100
O66         O  0.07376902  0.25420223  0.16445726    -1.23000
O67         O  0.70609393  0.50834760  0.88950356    -0.85200
O68         O  0.69364618  0.41827764  0.86385215    -0.82300
C69         C  0.69719093  0.37214981  0.85822675     0.98200
O70         O  0.70315003  0.33999813  0.87678410    -0.82300
O71         O  0.80006495  0.35831269  0.89034181    -0.85000
C72         C  0.83886859  0.38162240  0.89774741     1.02800
O73         O  0.83624339  0.41298163  0.91693057    -0.77700
O74         O  0.78584607  0.49172210  0.89444467    -0.77900
C75         C  0.75136621  0.51482893  0.88220958     1.02700
O76         O  0.65261466  0.46786243  0.93476610    -0.85200
O77         O  0.63044079  0.38133327  0.90627168    -0.82300
C78         C  0.63456583  0.34400887  0.92203431     0.98200
O79         O  0.67666740  0.33391421  0.93255069    -0.82300
O80         O  0.77850810  0.34384162  0.94639658    -0.84900
C81         C  0.78287447  0.37355560  0.96617579     1.02700
O82         O  0.77153312  0.41964351  0.96387117    -0.77700
O83         O  0.72494427  0.50523395  0.94335920    -0.77900
C84         C  0.67749669  0.50088545  0.94722307     1.02700
Cr85       Cr  0.67469090  0.44194064  0.89983697     1.93700
Cr86       Cr  0.73894531  0.34912192  0.91198595     1.93200
Cr87       Cr  0.77594251  0.45476628  0.92867053     1.39100
O88         O  0.72956632  0.41512016  0.91402745    -1.23000
O89         O  0.20235256  0.00412277  0.88751641    -0.85200
O90         O  0.19125633  0.09523723  0.91292589    -0.82300
C91         C  0.19659851  0.14157559  0.91815815     0.98200
O92         O  0.20363095  0.17274827  0.89916415    -0.82300
O93         O  0.29994692  0.15447699  0.88361216    -0.85000
C94         C  0.33819867  0.13262470  0.87434942     1.02800
O95         O  0.33333940  0.09798532  0.85699979    -0.77700
O96         O  0.28244319  0.02044416  0.88209438    -0.77900
C97         C  0.24779385  0.99712460  0.89433393     1.02700
O98         O  0.14857485  0.04456023  0.84204600    -0.85200
O99         O  0.12831338  0.13206306  0.87084468    -0.82300
C100        C  0.13311338  0.16906874  0.85488883     0.98200
O101        O  0.17474017  0.17645442  0.84333577    -0.82300
O102        O  0.27453478  0.16530740  0.82787355    -0.84900
C103        C  0.27662019  0.13428941  0.80851560     1.02700
O104        O  0.26550749  0.08849219  0.81220150    -0.77700
O105        O  0.22004377  0.00484161  0.83449605    -0.77900
C106        C  0.17330248  0.01116950  0.82968115     1.02700
Cr107      Cr  0.17153999  0.07077191  0.87705117     1.93700
Cr108      Cr  0.23734114  0.16220641  0.86324967     1.93200
Cr109      Cr  0.27190908  0.05564311  0.84759196     1.39100
O110        O  0.22688419  0.09635976  0.86238054    -1.23000
O111        O  0.47931654  0.27461497  0.63509652    -0.85200
O112        O  0.56829695  0.28436049  0.66208366    -0.82300
C113        C  0.61407114  0.27922541  0.66826071     0.98200
O114        O  0.64676643  0.27068441  0.65023219    -0.82300
O115        O  0.62673689  0.17462708  0.63409700    -0.85000
C116        C  0.60471019  0.13721784  0.62395268     1.02800
O117        O  0.57209725  0.14331361  0.60572822    -0.77700
O118        O  0.49399518  0.19448089  0.62924558    -0.77900
C119        C  0.47061749  0.22906446  0.64131280     1.02700
O120        O  0.52401159  0.32858886  0.59082147    -0.85200
O121        O  0.60971412  0.34751632  0.62083008    -0.82300
C122        C  0.64808377  0.34224312  0.60581536     0.98200
O123        O  0.65637065  0.30027842  0.59484938    -0.82300
O124        O  0.64373293  0.20078771  0.57889853    -0.84900
C125        C  0.61477904  0.19848407  0.55871978     1.02700
O126        O  0.56888292  0.21101770  0.56094948    -0.77700
O127        O  0.48376277  0.25839322  0.58186998    -0.77900
C128        C  0.49042452  0.30544759  0.57791323     1.02700
Cr129      Cr  0.54723440  0.30470178  0.62592986     1.93700
Cr130      Cr  0.63835330  0.23753734  0.61415752     1.93200
Cr131      Cr  0.53240673  0.20536631  0.59562528     1.39100
O132        O  0.57289402  0.24934049  0.61158389    -1.23000
O133        O  0.76364198  0.95145328  0.40534277    -0.85200
O134        O  0.79813456  0.85453211  0.40275983    -0.82300
C135        C  0.76243980  0.82746400  0.41185442     0.98200
O136        O  0.72283664  0.82002622  0.39840869    -0.82300
O137        O  0.64652824  0.84029484  0.36293847    -0.85000
C138        C  0.62452216  0.87332020  0.37684671     1.02800
O139        O  0.64300329  0.91719522  0.37877100    -0.77700
O140        O  0.71415426  0.99430485  0.37895565    -0.77900
C141        C  0.73337394  0.98749234  0.40179841     1.02700
O142        O  0.80703350  0.97231915  0.35234497    -0.85200
O143        O  0.83629738  0.87184526  0.34973822    -0.82300
C144        C  0.83227263  0.82428297  0.34896366     0.98200
O145        O  0.79084013  0.80375217  0.35518092    -0.82300
O146        O  0.71616439  0.83583143  0.31938995    -0.84900
C147        C  0.68219359  0.86330582  0.30914718     1.02700
O148        O  0.66450657  0.89987560  0.32250405    -0.77700
O149        O  0.74247268  0.96845960  0.32502106    -0.77900
C150        C  0.78663262  0.98384092  0.33012340     1.02700
Cr151      Cr  0.79668276  0.91165942  0.37634885     1.93700
Cr152      Cr  0.72068433  0.83000699  0.35905699     1.93200
Cr153      Cr  0.69433872  0.94145530  0.35210175     1.39100
O154        O  0.73775811  0.89446408  0.36228484    -1.23000
O155        O  0.47414720  0.72193820  0.13876824    -0.85200
O156        O  0.38291059  0.71471927  0.16359652    -0.82300
C157        C  0.33698586  0.72196430  0.16891840     0.98200
O158        O  0.30530865  0.72803901  0.15025930    -0.82300
O159        O  0.32783508  0.82356696  0.13646684    -0.85000
C160        C  0.35261617  0.86126031  0.12867823     1.02800
O161        O  0.38543431  0.85702506  0.11025582    -0.77700
O162        O  0.46192867  0.80306176  0.13390093    -0.77900
C163        C  0.48423195  0.76696306  0.14523521     1.02700
O164        O  0.43287824  0.67142687  0.09298175    -0.85200
O165        O  0.34381211  0.65314119  0.12133686    -0.82300
C166        C  0.30680436  0.65949196  0.10563703     0.98200
O167        O  0.30071454  0.70157355  0.09434771    -0.82300
O168        O  0.31571671  0.80212357  0.08041518    -0.84900
C169        C  0.34675515  0.80455540  0.06102990     1.02700
O170        O  0.39208937  0.79162204  0.06431497    -0.77700
O171        O  0.47415518  0.74221081  0.08577047    -0.77900
C172        C  0.46770692  0.69535731  0.08113654     1.02700
Cr173      Cr  0.40662342  0.69419681  0.12792247     1.93700
Cr174      Cr  0.31743163  0.76286286  0.11498947     1.93200
Cr175      Cr  0.42542012  0.79506719  0.09959286     1.39100
O176        O  0.38305883  0.75056514  0.11377814    -1.23000
C177        C  0.59793947  0.86299503  0.24678842    -0.22300
C178        C  0.61194998  0.81748444  0.23481706     0.09600
C179        C  0.65229756  0.78945871  0.24560391     0.10000
C180        C  0.67537090  0.80592062  0.26943159    -0.17300
C181        C  0.65976969  0.85049533  0.28247765    -0.27700
C182        C  0.62141535  0.88035864  0.27020805     0.18400
C183        C  0.58254137  0.80008232  0.21131317     0.12300
C184        C  0.67134671  0.74265377  0.23177863    -0.12000
H185        H  0.70533304  0.78334651  0.27803721     0.12600
C186        C  0.60442543  0.93067764  0.28117647    -0.22900
H187        H  0.56761728  0.88472186  0.23787241     0.08200
C188        C  0.54170804  0.76606310  0.21427324     0.04600
C189        C  0.51201101  0.75411844  0.19188485    -0.20100
C190        C  0.52085959  0.77696018  0.16687926    -0.12400
C191        C  0.56184146  0.81100627  0.16392885     0.13300
C192        C  0.59219706  0.82204356  0.18622162    -0.22800
C193        C  0.52781926  0.74441400  0.24128886    -0.05900
H194        H  0.48017538  0.72860663  0.19420119     0.14800
C195        C  0.57516593  0.83582499  0.13762610    -0.16100
H196        H  0.62317162  0.84866681  0.18413636     0.09100
H197        H  0.57650805  0.94934126  0.26787563     0.07000
H198        H  0.63731583  0.95655686  0.28296910     0.08200
H199        H  0.58580845  0.92561281  0.30092735     0.07200
H200        H  0.68430380  0.75248592  0.21123329     0.02100
H201        H  0.64087983  0.71396952  0.23041104     0.02600
H202        H  0.70359039  0.72551061  0.24267612     0.06100
H203        H  0.49414883  0.71937901  0.24010944     0.05100
H204        H  0.51899236  0.77553766  0.25542397    -0.00700
H205        H  0.55957885  0.72193290  0.24941050     0.00800
H206        H  0.57125149  0.87741769  0.13953600     0.04500
H207        H  0.55128826  0.82291388  0.12077725     0.06400
H208        H  0.61493949  0.82687895  0.13235286     0.07300
C209        C  0.69550925  0.03736623  0.47097545    -0.22300
C210        C  0.68609801  0.08836788  0.46540836     0.09600
C211        C  0.69400832  0.10671244  0.43915557     0.10000
C212        C  0.71032951  0.07333456  0.41892727    -0.17300
C213        C  0.71961472  0.02196389  0.42436937    -0.27700
C214        C  0.71198590  0.00394822  0.45088757     0.18400
C215        C  0.66673777  0.12115296  0.48741961     0.12300
C216        C  0.68459267  0.16135755  0.43248904    -0.12000
H217        H  0.71572204  0.08742370  0.39871241     0.12600
C218        C  0.71827223  0.94901128  0.45792732    -0.22900
H219        H  0.68901803  0.02346897  0.49114888     0.08200
C220        C  0.61506777  0.12159741  0.49447481     0.04600
C221        C  0.59905643  0.14920861  0.51700292    -0.20100
C222        C  0.63354238  0.17603199  0.53307011    -0.12400
C223        C  0.68519911  0.17720379  0.52521247     0.13300
C224        C  0.70097326  0.14980962  0.50248934    -0.22800
C225        C  0.57692202  0.09218160  0.47843627    -0.05900
H226        H  0.55952230  0.14804915  0.52269835     0.14800
C227        C  0.72398525  0.20756428  0.54035092    -0.16100
H228        H  0.74053049  0.14967169  0.49679232     0.09100
H229        H  0.70784172  0.94112675  0.47910381     0.07000
H230        H  0.75821289  0.93744450  0.45515413     0.08200
H231        H  0.69335269  0.92594438  0.44491951     0.07200
H232        H  0.70956737  0.18575541  0.44479184     0.02100
H233        H  0.64456432  0.17095420  0.43677267     0.02600
H234        H  0.69229988  0.16962285  0.41103193     0.06100
H235        H  0.53803193  0.09680948  0.48648018     0.05100
H236        H  0.58634120  0.05135213  0.47893311    -0.00700
H237        H  0.57724969  0.10554504  0.45733533     0.00800
H238        H  0.72961000  0.19147873  0.56065723     0.04500
H239        H  0.71143782  0.24744877  0.54192332     0.06400
H240        H  0.76129486  0.20732311  0.53009579     0.07300
C241        C  0.33854367  0.84092752  0.98690683    -0.22300
C242        C  0.30081045  0.87793918  0.98779876     0.09600
C243        C  0.27659471  0.88873059  0.01232251     0.10000
C244        C  0.29131243  0.86281431  0.03555989    -0.17300
C245        C  0.33037309  0.82682619  0.03506469    -0.27700
C246        C  0.35397237  0.81538030  0.01021712     0.18400
C247        C  0.28863337  0.90660170  0.96307552     0.12300
C248        C  0.23630706  0.92875171  0.01412668    -0.12000
H249        H  0.27327270  0.87211209  0.05444300     0.12600
C250        C  0.39490534  0.77606919  0.00787296    -0.22900
H251        H  0.35668441  0.83277449  0.96789664     0.08200
C252        C  0.32019982  0.94593248  0.95384552     0.04600
C253        C  0.30630467  0.97343863  0.93099232    -0.20100
C254        C  0.26093329  0.96346238  0.91728014    -0.12400
C255        C  0.22925642  0.92375546  0.92670246     0.13300
C256        C  0.24392440  0.89559764  0.94930480    -0.22800
C257        C  0.36783301  0.95990125  0.96859171    -0.05900
H258        H  0.33050813  0.00408340  0.92430129     0.14800
C259        C  0.18036154  0.91007383  0.91313318    -0.16100
H260        H  0.21997744  0.86524797  0.95662367     0.09100
H261        H  0.42916241  0.78843960  0.01884125     0.07000
H262        H  0.40622793  0.76978359  0.98668883     0.08200
H263        H  0.38121478  0.73949750  0.01610270     0.07200
H264        H  0.20381787  0.91835807  0.00123730     0.02100
H265        H  0.25190893  0.96564960  0.00739559     0.02600
H266        H  0.22207584  0.93329414  0.03494440     0.06100
H267        H  0.38754298  0.99241064  0.95905583     0.05100
H268        H  0.39421667  0.92738801  0.96873480    -0.00700
H269        H  0.35846863  0.97046818  0.98954941     0.00800
H270        H  0.18780780  0.90028932  0.89193990     0.04500
H271        H  0.15337586  0.94198739  0.91436073     0.06400
H272        H  0.16191855  0.87686875  0.92270716     0.07300
C273        C  0.30759759  0.14274686  0.73363343    -0.22300
C274        C  0.34675754  0.17853613  0.73383740     0.09600
C275        C  0.36006010  0.20207117  0.75816211     0.10000
C276        C  0.33445304  0.18873835  0.78182277    -0.17300
C277        C  0.29693750  0.15102234  0.78206622    -0.27700
C278        C  0.28265701  0.12837341  0.75744341     0.18400
C279        C  0.37529638  0.18918242  0.70872201     0.12300
C280        C  0.40258734  0.23996666  0.75932021    -0.12000
H281        H  0.34534630  0.20651650  0.80047155     0.12600
C282        C  0.24076202  0.08975322  0.75592024    -0.22900
H283        H  0.29737738  0.12514149  0.71481240     0.08200
C284        C  0.41398479  0.15667597  0.69985319     0.04600
C285        C  0.44291593  0.17007761  0.67729929    -0.20100
C286        C  0.43487475  0.21576871  0.66346349    -0.12400
C287        C  0.39504196  0.24779796  0.67207932     0.13300
C288        C  0.36566974  0.23384530  0.69450717    -0.22800
C289        C  0.42583196  0.10856150  0.71472554    -0.05900
H290        H  0.47330872  0.14534873  0.67103870     0.14800
C291        C  0.38273990  0.29641559  0.65778674    -0.16100
H292        H  0.33571941  0.25848545  0.70143969     0.09100
H293        H  0.25171796  0.05471674  0.76662684     0.07000
H294        H  0.23228782  0.07914999  0.73487742     0.08200
H295        H  0.20570536  0.10535759  0.76492636     0.07200
H296        H  0.39374469  0.27289840  0.74638120     0.02100
H297        H  0.43817583  0.22220442  0.75225161     0.02600
H298        H  0.40883865  0.25399100  0.78001461     0.06100
H299        H  0.45785712  0.08790044  0.70541994     0.05100
H300        H  0.39233048  0.08325869  0.71465081    -0.00700
H301        H  0.43615700  0.11742228  0.73575402     0.00800
H302        H  0.37556609  0.28879100  0.63625392     0.04500
H303        H  0.41443233  0.32362103  0.65986825     0.06400
H304        H  0.34848777  0.31465854  0.66625471     0.07300
C305        C  0.54407840  0.59329845  0.04474435    -0.22300
C306        C  0.56858640  0.62195634  0.02499188     0.09600
C307        C  0.56081592  0.67458312  0.02397784     0.10000
C308        C  0.52804569  0.69734571  0.04259917    -0.17300
C309        C  0.50228216  0.66867774  0.06216578    -0.27700
C310        C  0.51112406  0.61572598  0.06337008     0.18400
C311        C  0.59896882  0.59506795  0.00441129     0.12300
C312        C  0.58693550  0.70659142  0.00313869    -0.12000
H313        H  0.52191894  0.73776548  0.04153684     0.12600
C314        C  0.48701776  0.58231764  0.08435904    -0.22900
H315        H  0.55029982  0.55283741  0.04529021     0.08200
C316        C  0.64977603  0.58125184  0.00870848     0.04600
C317        C  0.67509753  0.55180808  0.98940397    -0.20100
C318        C  0.65042720  0.53517049  0.96607877    -0.12400
C319        C  0.59984774  0.55092152  0.96146068     0.13300
C320        C  0.57499066  0.58054312  0.98070361    -0.22800
C321        C  0.67691275  0.59715673  0.03379263    -0.05900
H322        H  0.71382968  0.54045488  0.99294774     0.14800
C323        C  0.57177760  0.53776791  0.93612573    -0.16100
H324        H  0.53607806  0.59173693  0.97751264     0.09100
H325        H  0.49632479  0.59657989  0.10467245     0.07000
H326        H  0.50070939  0.54275944  0.08304392     0.08200
H327        H  0.44543417  0.58131655  0.08160211     0.07200
H328        H  0.57565503  0.69404165  0.98279984     0.02100
H329        H  0.62851087  0.70289582  0.00523806     0.02600
H330        H  0.57705240  0.74715832  0.00520242     0.06100
H331        H  0.71655356  0.58348377  0.03402829     0.05100
H332        H  0.65716786  0.58151843  0.05163952    -0.00700
H333        H  0.67754913  0.63900913  0.03514413     0.00800
H334        H  0.56448766  0.49655334  0.93524020     0.04500
H335        H  0.59414750  0.54987354  0.91836637     0.06400
H336        H  0.53449784  0.55686460  0.93511587     0.07300
C337        C  0.69266153  0.36951155  0.78191253    -0.22300
C338        C  0.67167391  0.32166929  0.77753630     0.09600
C339        C  0.66283359  0.28901973  0.79938461     0.10000
C340        C  0.67320504  0.30598178  0.82541098    -0.17300
C341        C  0.69138250  0.35518324  0.83009767    -0.27700
C342        C  0.70228666  0.38705621  0.80788633     0.18400
C343        C  0.65564889  0.30856256  0.75005725     0.12300
C344        C  0.64089181  0.23704229  0.79530138    -0.12000
H345        H  0.66521831  0.28124994  0.84224065     0.12600
C346        C  0.72405324  0.43947375  0.81107746    -0.22900
H347        H  0.69979757  0.39395311  0.76484568     0.08200
C348        C  0.61209967  0.33051636  0.73881550     0.04600
C349        C  0.59940339  0.31947836  0.71227137    -0.20100
C350        C  0.62926173  0.28711299  0.69652862    -0.12400
C351        C  0.67216540  0.26385192  0.70815999     0.13300
C352        C  0.68485671  0.27508327  0.73483261    -0.22800
C353        C  0.57882369  0.36546502  0.75486681    -0.05900
H354        H  0.56633807  0.33715666  0.70361376     0.14800
C355        C  0.70402316  0.22637069  0.69298168    -0.16100
H356        H  0.71800232  0.25814475  0.74381339     0.09100
H357        H  0.69629057  0.46457311  0.82106486     0.07000
H358        H  0.73343171  0.45691713  0.79142800     0.08200
H359        H  0.75933571  0.43788662  0.82299353     0.07200
H360        H  0.66667654  0.21426212  0.78260043     0.02100
H361        H  0.60356201  0.24001680  0.78533049     0.02600
H362        H  0.63551161  0.21673894  0.81460495     0.06100
H363        H  0.54545105  0.37809561  0.74321544     0.05100
H364        H  0.60038690  0.39961336  0.76083571    -0.00700
H365        H  0.56497905  0.34567958  0.77311397     0.00800
H366        H  0.72319116  0.24525439  0.67587314     0.04500
H367        H  0.67988148  0.19503025  0.68555877     0.06400
H368        H  0.73384369  0.20967856  0.70584452     0.07300
C369        C  0.46899072  0.19274045  0.87647043    -0.22300
C370        C  0.47220892  0.20469644  0.90378216     0.09600
C371        C  0.43443743  0.18733648  0.92150538     0.10000
C372        C  0.39314472  0.16021768  0.91131713    -0.17300
C373        C  0.38825343  0.15037485  0.88373586    -0.27700
C374        C  0.42743025  0.16612263  0.86607725     0.18400
C375        C  0.51353476  0.23855274  0.91287858     0.12300
C376        C  0.43727594  0.19818088  0.95108437    -0.12000
H377        H  0.36323735  0.14841469  0.92487204     0.12600
C378        C  0.42593651  0.15898501  0.83610660    -0.22900
H379        H  0.49814167  0.20635226  0.86291985     0.08200
C380        C  0.56371630  0.22143444  0.91533460     0.04600
C381        C  0.60227209  0.25630073  0.92114916    -0.20100
C382        C  0.59179145  0.30801773  0.92429854    -0.12400
C383        C  0.54087212  0.32431337  0.92389388     0.13300
C384        C  0.50251129  0.28949592  0.91782548    -0.22800
C385        C  0.57664330  0.16663153  0.91118522    -0.05900
H386        H  0.64117456  0.24358538  0.92139993     0.14800
C387        C  0.52571566  0.37799691  0.92981815    -0.16100
H388        H  0.46373937  0.30238894  0.91644082     0.09100
H389        H  0.45905915  0.13630286  0.82969870     0.07000
H390        H  0.42793649  0.19643314  0.82608533     0.08200
H391        H  0.39161648  0.13978278  0.82882293     0.07200
H392        H  0.43644724  0.23955771  0.95457477     0.02100
H393        H  0.47285453  0.18246276  0.95933289     0.02600
H394        H  0.40508206  0.18102094  0.96219278     0.06100
H395        H  0.61754835  0.15941677  0.91424194     0.05100
H396        H  0.56688615  0.15504697  0.89047134    -0.00700
H397        H  0.55507333  0.14299156  0.92565493     0.00800
H398        H  0.50896940  0.39540980  0.91165185     0.04500
H399        H  0.55784858  0.40154278  0.93663805     0.06400
H400        H  0.49714689  0.37820949  0.94616575     0.07300
C401        C  0.05996732  0.29294892  0.85096071    -0.22300
C402        C  0.01262709  0.27691889  0.86020590     0.09600
C403        C  0.00335758  0.22498987  0.86428561     0.10000
C404        C  0.04254004  0.19032378  0.86025749    -0.17300
C405        C  0.09122647  0.20623669  0.85262268    -0.27700
C406        C  0.09962152  0.25839226  0.84717481     0.18400
C407        C  0.97393972  0.31482315  0.86747307     0.12300
C408        C  0.95265245  0.20635621  0.87405051    -0.12000
H409        H  0.03560225  0.15065372  0.86428997     0.12600
C410        C  0.15056707  0.27873434  0.83882217    -0.22900
H411        H  0.06641062  0.33297600  0.84777726     0.08200
C412        C  0.97390423  0.33802135  0.89290657     0.04600
C413        C  0.93121887  0.36526366  0.90120394    -0.20100
C414        C  0.88780575  0.36757878  0.88518213    -0.12400
C415        C  0.89049264  0.34944802  0.85843213     0.13300
C416        C  0.93365969  0.32318864  0.84996243    -0.22800
C417        C  0.01768735  0.33161058  0.91183270    -0.05900
H418        H  0.93074352  0.38184993  0.92091558     0.14800
C419        C  0.84837965  0.35782930  0.83859362    -0.16100
H420        H  0.93484649  0.30660838  0.83012334     0.09100
H421        H  0.17894696  0.27065576  0.85459418     0.07000
H422        H  0.14983500  0.32030454  0.83576572     0.08200
H423        H  0.16236790  0.26128140  0.81959148     0.07200
H424        H  0.92296509  0.21645195  0.85933390     0.02100
H425        H  0.94355207  0.22390177  0.89367201     0.02600
H426        H  0.95207912  0.16468648  0.87668935     0.06100
H427        H  0.01117110  0.35152632  0.93110626     0.05100
H428        H  0.05257847  0.34722208  0.90256519    -0.00700
H429        H  0.02334235  0.29090092  0.91628076     0.00800
H430        H  0.85953248  0.34601083  0.81806816     0.04500
H431        H  0.83888406  0.39862744  0.83783499     0.06400
H432        H  0.81440067  0.33553475  0.84411543     0.07300
C433        C  0.82608320  0.05971080  0.26722553    -0.22300
C434        C  0.87461861  0.07590346  0.27439717     0.09600
C435        C  0.89402264  0.06208656  0.29963190     0.10000
C436        C  0.86445495  0.03246123  0.31715378    -0.17300
C437        C  0.81539371  0.01598191  0.31028092    -0.27700
C438        C  0.79619700  0.02997350  0.28464398     0.18400
C439        C  0.90429424  0.10771859  0.25524276     0.12300
C440        C  0.94601899  0.07882462  0.30810798    -0.12000
H441        H  0.88009657  0.02217904  0.33643625     0.12600
C442        C  0.74453655  0.01402148  0.27511360    -0.22900
H443        H  0.81153492  0.07048249  0.24775620     0.08200
C444        C  0.93656635  0.08608028  0.23588114     0.04600
C445        C  0.96366667  0.11765042  0.21820486    -0.20100
C446        C  0.95952047  0.17068380  0.21927798    -0.12400
C447        C  0.92668363  0.19223598  0.23866001     0.13300
C448        C  0.89961833  0.16045116  0.25634324    -0.22800
C449        C  0.94217579  0.02960055  0.23378650    -0.05900
H450        H  0.98856907  0.10066995  0.20349411     0.14800
C451        C  0.91843334  0.24843466  0.24029545    -0.16100
H452        H  0.87441899  0.17678789  0.27111829     0.09100
H453        H  0.73633948  0.02843605  0.25466812     0.07000
H454        H  0.71505046  0.02924669  0.28872917     0.08200
H455        H  0.74206272  0.97216899  0.27434016     0.07200
H456        H  0.94797722  0.12071904  0.30831832     0.02100
H457        H  0.97472395  0.06412667  0.29388466     0.02600
H458        H  0.95561838  0.06487595  0.32846550     0.06100
H459        H  0.96885710  0.01880926  0.21756472     0.05100
H460        H  0.90492290  0.01216268  0.22939523    -0.00700
H461        H  0.95671146  0.01407915  0.25293342     0.00800
H462        H  0.88939366  0.25825717  0.25552317     0.04500
H463        H  0.90541034  0.26297736  0.22061114     0.06400
H464        H  0.95402276  0.26765395  0.24607371     0.07300
C465        C  0.88934968  0.33978214  0.08373625    -0.22300
C466        C  0.87529226  0.30321408  0.06488545     0.09600
C467        C  0.89092533  0.25269866  0.06869248     0.10000
C468        C  0.92150594  0.24037894  0.09076077    -0.17300
C469        C  0.93686089  0.27718146  0.10935554    -0.27700
C470        C  0.91977205  0.32758145  0.10589683     0.18400
C471        C  0.84928482  0.31983998  0.03990174     0.12300
C472        C  0.87539989  0.21168959  0.04947655    -0.12000
H473        H  0.93425413  0.20177965  0.09325944     0.12600
C474        C  0.93591174  0.36960813  0.12429854    -0.22900
H475        H  0.87817954  0.37866253  0.08042588     0.08200
C476        C  0.79906269  0.33814104  0.03970500     0.04600
C477        C  0.77787012  0.35561771  0.01546788    -0.20100
C478        C  0.80567138  0.35470728  0.99145591    -0.12400
C479        C  0.85595364  0.33677095  0.99187447     0.13300
C480        C  0.87706956  0.31973918  0.01597873    -0.22800
C481        C  0.76765908  0.33847137  0.06490494    -0.05900
H482        H  0.73944398  0.36967294  0.01520387     0.14800
C483        C  0.88860662  0.33858497  0.96722370    -0.16100
H484        H  0.91602285  0.30714675  0.01631416     0.09100
H485        H  0.91952013  0.40649024  0.11826367     0.07000
H486        H  0.97754780  0.37358993  0.12356497     0.08200
H487        H  0.92315415  0.36169314  0.14508496     0.07200
H488        H  0.89110390  0.21935115  0.02924362     0.02100
H489        H  0.83354158  0.20994374  0.04831090     0.02600
H490        H  0.88928563  0.17405580  0.05596653     0.06100
H491        H  0.72880171  0.35246349  0.06109396     0.05100
H492        H  0.78523577  0.36347361  0.08007999    -0.00700
H493        H  0.76482352  0.29953941  0.07310044     0.00800
H494        H  0.92743079  0.32454704  0.97110861     0.04500
H495        H  0.89144363  0.37845508  0.96057272     0.06400
H496        H  0.87194754  0.31507513  0.95110525     0.07300
C497        C  0.18024521  0.59083148  0.10730072    -0.22300
C498        C  0.19624937  0.54180873  0.11335288     0.09600
C499        C  0.24826355  0.53033498  0.11297142     0.10000
C500        C  0.28343074  0.56895399  0.10804234    -0.17300
C501        C  0.26795053  0.61903727  0.10371549    -0.27700
C502        C  0.21539060  0.62980783  0.10255770     0.18400
C503        C  0.15899347  0.50409412  0.12303088     0.12300
C504        C  0.26671437  0.47770619  0.11899509    -0.12000
H505        H  0.32344272  0.56042981  0.10890917     0.12600
C506        C  0.19578472  0.68259601  0.09818621    -0.22900
H507        H  0.14015190  0.59909723  0.10768375     0.08200
C508        C  0.14837341  0.49944391  0.15066760     0.04600
C509        C  0.12135148  0.45722874  0.15991734    -0.20100
C510        C  0.10464365  0.41980846  0.14215061    -0.12400
C511        C  0.11197576  0.42645582  0.11427608     0.13300
C512        C  0.13910517  0.46872675  0.10502587    -0.22800
C513        C  0.16809846  0.53752823  0.17051508    -0.05900
H514        H  0.11627327  0.45158489  0.18128965     0.14800
C515        C  0.09465894  0.38808605  0.09399899    -0.16100
H516        H  0.14726052  0.47258512  0.08381425     0.09100
H517        H  0.20959828  0.70791945  0.11431307     0.07000
H518        H  0.15383259  0.68384562  0.09845723     0.08200
H519        H  0.20857661  0.69691112  0.07836890     0.07200
H520        H  0.25084687  0.45081561  0.10417350     0.02100
H521        H  0.25455890  0.46621367  0.13943318     0.02600
H522        H  0.30857055  0.47524464  0.11802928     0.06100
H523        H  0.15668271  0.52799748  0.19136183     0.05100
H524        H  0.15295374  0.57551903  0.16565253    -0.00700
H525        H  0.21000890  0.53882699  0.16969757     0.00800
H526        H  0.06958906  0.40660480  0.07915311     0.04500
H527        H  0.07318010  0.35657508  0.10321576     0.06400
H528        H  0.12789601  0.37210224  0.08337999     0.07300
C529        C  0.26320438  0.07823544  0.17679323    -0.22300
C530        C  0.24521567  0.03328443  0.16564586     0.09600
C531        C  0.19295183  0.02687893  0.16129080     0.10000
C532        C  0.16021025  0.06757185  0.16583359    -0.17300
C533        C  0.17874617  0.11455088  0.17447062    -0.27700
C534        C  0.23060314  0.11907577  0.18139574     0.18400
C535        C  0.28174154  0.99432114  0.15711365     0.12300
C536        C  0.17208061  0.97758293  0.15101714    -0.12000
H537        H  0.12055221  0.06358138  0.16088247     0.12600
C538        C  0.25208874  0.16665246  0.19352730    -0.22900
H539        H  0.30326177  0.08205843  0.18082159     0.08200
C540        C  0.29903663  0.99193937  0.13033525     0.04600
C541        C  0.32743944  0.95007936  0.12198886    -0.20100
C542        C  0.33853075  0.91075622  0.13987937    -0.12400
C543        C  0.32542354  0.91586307  0.16731916     0.13300
C544        C  0.29664988  0.95743186  0.17552918    -0.22800
C545        C  0.28569236  0.03253213  0.11037212    -0.05900
H546        H  0.33757505  0.94623405  0.10102529     0.14800
C547        C  0.34050744  0.87774697  0.18832753    -0.16100
H548        H  0.28439017  0.96024339  0.19622604     0.09100
H549        H  0.25244176  0.19781027  0.17865964     0.07000
H550        H  0.29170889  0.16120845  0.20021128     0.08200
H551        H  0.22932734  0.17771063  0.21129472     0.07200
H552        H  0.18137946  0.94676186  0.16528080     0.02100
H553        H  0.18876838  0.96873041  0.13114951     0.02600
H554        H  0.13036112  0.97888738  0.14877768     0.06100
H555        H  0.30220247  0.02480868  0.09030647     0.05100
H556        H  0.30041020  0.06950310  0.11740019    -0.00700
H557        H  0.24405570  0.03499039  0.10815948     0.00800
H558        H  0.36076064  0.89727133  0.20480336     0.04500
H559        H  0.36634461  0.84835990  0.18045538     0.06400
H560        H  0.30625490  0.85911040  0.19667165     0.07300
C561        C  0.12419452  0.22563515  0.03459054    -0.22300
C562        C  0.17133239  0.20414497  0.02895388     0.09600
C563        C  0.20685303  0.19799013  0.04976360     0.10000
C564        C  0.19303124  0.21065098  0.07615566    -0.17300
C565        C  0.14495342  0.23015707  0.08193502    -0.27700
C566        C  0.11065814  0.23909813  0.06077866     0.18400
C567        C  0.18144032  0.18712265  0.00116810     0.12300
C568        C  0.25903985  0.17798726  0.04411646    -0.12000
H569        H  0.21920307  0.20387943  0.09243912     0.12600
C570        C  0.05935877  0.26226997  0.06510885    -0.22900
H571        H  0.09737312  0.23112278  0.01845824     0.08200
C572        C  0.17186188  0.13693484  0.99325877     0.04600
C573        C  0.17809612  0.12338312  0.96627784    -0.20100
C574        C  0.19252636  0.15901335  0.94662228    -0.12400
C575        C  0.20206934  0.20964511  0.95482212     0.13300
C576        C  0.19653871  0.22274510  0.98198943    -0.22800
C577        C  0.15340358  0.09799114  0.01312728    -0.05900
H578        H  0.17048617  0.08467388  0.96050582     0.14800
C579        C  0.21778006  0.25052254  0.93540679    -0.16100
H580        H  0.20309714  0.26136134  0.98832206     0.09100
H581        H  0.02946949  0.23482583  0.05943018     0.07000
H582        H  0.05567641  0.29659148  0.05244156     0.08200
H583        H  0.05306216  0.27391056  0.08610182     0.07200
H584        H  0.27865058  0.20336330  0.02969664     0.02100
H585        H  0.25679319  0.13955183  0.03540424     0.02600
H586        H  0.28214275  0.17584292  0.06262986     0.06100
H587        H  0.14707617  0.06068493  0.00353284     0.05100
H588        H  0.11708482  0.11050972  0.02207768    -0.00700
H589        H  0.18151924  0.09283275  0.02932089     0.00800
H590        H  0.18754873  0.25669201  0.92038123     0.04500
H591        H  0.25356450  0.23978469  0.92526271     0.06400
H592        H  0.22439894  0.28716719  0.94564228     0.07300
C593        C  0.36272859  0.40108792  0.47732306    -0.22300
C594        C  0.35721072  0.41149658  0.50463637     0.09600
C595        C  0.32376502  0.44985942  0.51293913     0.10000
C596        C  0.29784410  0.47821871  0.49354854    -0.17300
C597        C  0.30495042  0.46940581  0.46601221    -0.27700
C598        C  0.33665164  0.42890009  0.45786520     0.18400
C599        C  0.38974644  0.38409396  0.52390110     0.12300
C600        C  0.31590484  0.46118118  0.54222224    -0.12000
H601        H  0.27344753  0.50878991  0.49993247     0.12600
C602        C  0.34367397  0.41267633  0.42912256    -0.22900
H603        H  0.38816161  0.37121769  0.47110023     0.08200
C604        C  0.38053812  0.33344981  0.53117541     0.04600
C605        C  0.41415725  0.30886987  0.54858517    -0.20100
C606        C  0.45695890  0.33371655  0.55903439    -0.12400
C607        C  0.46580543  0.38498499  0.55155055     0.13300
C608        C  0.43214786  0.40908341  0.53403623    -0.22800
C609        C  0.33490338  0.30561828  0.52082234    -0.05900
H610        H  0.40656516  0.27001453  0.55417921     0.14800
C611        C  0.51051374  0.41509869  0.56144565    -0.16100
H612        H  0.43899307  0.44789325  0.52801490     0.09100
H613        H  0.33402736  0.37197480  0.42724354     0.07000
H614        H  0.38374745  0.41815467  0.42311366     0.08200
H615        H  0.31949096  0.43301204  0.41477130     0.07200
H616        H  0.35204278  0.47343716  0.55140144     0.02100
H617        H  0.30198664  0.42677081  0.55267388     0.02600
H618        H  0.28779435  0.49174332  0.54527429     0.06100
H619        H  0.33268366  0.26654670  0.52889943     0.05100
H620        H  0.33657927  0.30321702  0.49863841    -0.00700
H621        H  0.30002652  0.32594702  0.52683887     0.00800
H622        H  0.51167671  0.45366357  0.55264375     0.04500
H623        H  0.54623986  0.39593043  0.55577117     0.06400
H624        H  0.50827411  0.41963748  0.58352575     0.07300
C625        C  0.20642877  0.38686217  0.33389925    -0.22300
C626        C  0.20084154  0.40850803  0.30845982     0.09600
C627        C  0.21059194  0.46052951  0.30489438     0.10000
C628        C  0.22564199  0.48975582  0.32695255    -0.17300
C629        C  0.22964698  0.46863635  0.35274183    -0.27700
C630        C  0.22070520  0.41608106  0.35612786     0.18400
C631        C  0.18068837  0.37702239  0.28632722     0.12300
C632        C  0.20317399  0.48560578  0.27805272    -0.12000
H633        H  0.23209665  0.52992780  0.32426207     0.12600
C634        C  0.22646419  0.38890864  0.38251036    -0.22900
H635        H  0.19882484  0.34687318  0.33650755     0.08200
C636        C  0.21248001  0.35317125  0.26750996     0.04600
C637        C  0.19087890  0.32711973  0.24579394    -0.20100
C638        C  0.13810250  0.32449403  0.24241199    -0.12400
C639        C  0.10642932  0.34614313  0.26234561     0.13300
C640        C  0.12825447  0.37204033  0.28396831    -0.22800
C641        C  0.26909098  0.35557107  0.27027924    -0.05900
H642        H  0.21545843  0.31039223  0.23085915     0.14800
C643        C  0.04962826  0.34177965  0.26137166    -0.16100
H644        H  0.10422559  0.38964712  0.29888527     0.09100
H645        H  0.25453963  0.35807784  0.38026102     0.07000
H646        H  0.18962424  0.37217040  0.38853089     0.08200
H647        H  0.23967084  0.41339697  0.39893236     0.07200
H648        H  0.16329815  0.48110846  0.27160841     0.02100
H649        H  0.22832056  0.46816731  0.26286659     0.02600
H650        H  0.21186222  0.52665692  0.27882520     0.06100
H651        H  0.28847446  0.33471575  0.25393475     0.05100
H652        H  0.28042511  0.33850356  0.28968471    -0.00700
H653        H  0.28212524  0.39541505  0.26964198     0.00800
H654        H  0.03164930  0.35672415  0.27986355     0.04500
H655        H  0.03860510  0.30146823  0.25944369     0.06400
H656        H  0.03441430  0.36387382  0.24432043     0.07300
C657        C  0.91561227  0.70754242  0.34278907    -0.22300
C658        C  0.96188208  0.72732724  0.35128456     0.09600
C659        C  0.96767830  0.78011911  0.35370259     0.10000
C660        C  0.92553622  0.81166048  0.35024547    -0.17300
C661        C  0.87746551  0.79155117  0.34462389    -0.27700
C662        C  0.87331153  0.73887088  0.33922849     0.18400
C663        C  0.00117856  0.69235022  0.36151837     0.12300
C664        C  0.01788731  0.80283918  0.36125874    -0.12000
H665        H  0.92960486  0.85180705  0.35387726     0.12600
C666        C  0.82451710  0.71475499  0.33023387    -0.22900
H667        H  0.91183106  0.66699342  0.34049047     0.08200
C668        C  0.00166411  0.67850191  0.38886055     0.04600
C669        C  0.04274980  0.65145023  0.39907736    -0.20100
C670        C  0.08334139  0.63765078  0.38261222    -0.12400
C671        C  0.08155801  0.64870841  0.35485365     0.13300
C672        C  0.04025573  0.67597035  0.34460371    -0.22800
C673        C  0.95988832  0.69438598  0.40754644    -0.05900
H674        H  0.04459383  0.64344201  0.42037856     0.14800
C675        C  0.12362563  0.63467637  0.33586427    -0.16100
H676        H  0.03961526  0.68635827  0.32358354     0.09100
H677        H  0.79655751  0.71422277  0.34682463     0.07000
H678        H  0.83022734  0.67491503  0.32397845     0.08200
H679        H  0.80911505  0.73569578  0.31278252     0.07200
H680        H  0.04674312  0.79246071  0.34604956     0.02100
H681        H  0.02986400  0.78845839  0.38115546     0.02600
H682        H  0.01609069  0.84470093  0.36231617     0.06100
H683        H  0.96615472  0.68061079  0.42830887     0.05100
H684        H  0.92336090  0.67881564  0.40040564    -0.00700
H685        H  0.95773742  0.73621376  0.40812940     0.00800
H686        H  0.10829876  0.61063548  0.31957289     0.04500
H687        H  0.15441779  0.61340058  0.34575465     0.06400
H688        H  0.14009658  0.66944871  0.32689367     0.07300
C689        C  0.49803557  0.81196633  0.38840978    -0.22300
C690        C  0.50016129  0.80255608  0.41601147     0.09600
C691        C  0.53980606  0.82341286  0.43127847     0.10000
C692        C  0.57774424  0.85179257  0.41827271    -0.17300
C693        C  0.57717508  0.85851896  0.39033334    -0.27700
C694        C  0.53616383  0.83928414  0.37533478     0.18400
C695        C  0.46188248  0.76770220  0.42750111     0.12300
C696        C  0.54304562  0.81392955  0.46096131    -0.12000
H697        H  0.60978887  0.86556061  0.42963418     0.12600
C698        C  0.53230799  0.84549293  0.34536627    -0.22900
H699        H  0.46730227  0.79608782  0.37677738     0.08200
C700        C  0.41311682  0.78474388  0.43411490     0.04600
C701        C  0.37430969  0.74932577  0.43804692    -0.20100
C702        C  0.38250341  0.69719785  0.43428689    -0.12400
C703        C  0.43266968  0.68001739  0.43019820     0.13300
C704        C  0.47177995  0.71568313  0.42704925    -0.22800
C705        C  0.40139868  0.84035747  0.43537517    -0.05900
H706        H  0.33633156  0.76286029  0.44184307     0.14800
C707        C  0.44502450  0.62479477  0.42709451    -0.16100
H708        H  0.50959935  0.70304875  0.42207928     0.09100
H709        H  0.49615020  0.86441528  0.34033626     0.07000
H710        H  0.53313255  0.80781475  0.33562520     0.08200
H711        H  0.56330446  0.86871186  0.33686590     0.07200
H712        H  0.54581249  0.77271772  0.46484213     0.02100
H713        H  0.50876924  0.82886402  0.47103865     0.02600
H714        H  0.57665563  0.83258821  0.46988005     0.06100
H715        H  0.36126553  0.84729622  0.44077316     0.05100
H716        H  0.40874635  0.85818473  0.41558454    -0.00700
H717        H  0.42555040  0.85868660  0.45069986     0.00800
H718        H  0.42567810  0.60921153  0.40920330     0.04500
H719        H  0.43294915  0.60380300  0.44531074     0.06400
H720        H  0.48622174  0.61858937  0.42439012     0.07300
C721        C  0.32648784  0.66753324  0.29174527    -0.22300
C722        C  0.29504003  0.70472635  0.28108722     0.09600
C723        C  0.25772006  0.72720595  0.29726069     0.10000
C724        C  0.25259658  0.71159213  0.32402037    -0.17300
C725        C  0.28411830  0.67408879  0.33493926    -0.27700
C726        C  0.32198888  0.65196668  0.31841985     0.18400
C727        C  0.30140900  0.71727835  0.25248289     0.12300
C728        C  0.22375365  0.76783721  0.28635202    -0.12000
H729        H  0.22375379  0.72881914  0.33642885     0.12600
C730        C  0.35729630  0.61107494  0.32804722    -0.22900
H731        H  0.35461242  0.65024552  0.27886498     0.08200
C732        C  0.34502999  0.74260395  0.24322896     0.04600
C733        C  0.35432451  0.74516140  0.21568047    -0.20100
C734        C  0.32108543  0.72299136  0.19721024    -0.12400
C735        C  0.27589066  0.70009633  0.20641821     0.13300
C736        C  0.26677251  0.69733769  0.23409121    -0.22800
C737        C  0.38217381  0.76618642  0.26238195    -0.05900
H738        H  0.38843442  0.76359707  0.20852031     0.14800
C739        C  0.23868942  0.67605028  0.18745364    -0.16100
H740        H  0.23365587  0.67752747  0.24150808     0.09100
H741        H  0.38174700  0.62575609  0.34431893     0.07000
H742        H  0.38279153  0.59761054  0.31185461     0.08200
H743        H  0.33522013  0.57797075  0.33517309     0.07200
H744        H  0.20098009  0.75269738  0.26953519     0.02100
H745        H  0.24698086  0.80005116  0.27904076     0.02600
H746        H  0.19727545  0.78215654  0.30187330     0.06100
H747        H  0.41329001  0.78593154  0.25161180     0.05100
H748        H  0.39936990  0.73675695  0.27528600    -0.00700
H749        H  0.36245400  0.79423329  0.27517234     0.00800
H750        H  0.25779544  0.64652819  0.17533938     0.04500
H751        H  0.22258136  0.70518623  0.17395643     0.06400
H752        H  0.20676253  0.65790473  0.19834063     0.07300
C753        C  0.00772204  0.89402471  0.75365542    -0.22300
C754        C  0.06062738  0.89146602  0.75254514     0.09600
C755        C  0.08367520  0.85968764  0.73335412     0.10000
C756        C  0.05327316  0.83170865  0.71561192    -0.17300
C757        C  0.00031805  0.83535112  0.71621405    -0.27700
C758        C  0.97724960  0.86662767  0.73578124     0.18400
C759        C  0.09087887  0.92244822  0.77168390     0.12300
C760        C  0.14033735  0.85663148  0.73092438    -0.12000
H761        H  0.07102087  0.80810248  0.70057500     0.12600
C762        C  0.92075699  0.87131413  0.73901120    -0.22900
H763        H  0.98996975  0.91763821  0.76869961     0.08200
C764        C  0.09258868  0.97574325  0.76996748     0.04600
C765        C  0.12003199  0.00336475  0.78912509    -0.20100
C766        C  0.14685598  0.97912984  0.80969730    -0.12400
C767        C  0.14584419  0.92561854  0.81111070     0.13300
C768        C  0.11754822  0.89816252  0.79224732    -0.22800
C769        C  0.06633554  0.00352216  0.74762794    -0.05900
H770        H  0.12092998  0.04426216  0.78792237     0.14800
C771        C  0.17245202  0.89599696  0.83262583    -0.16100
H772        H  0.11583102  0.85732635  0.79377937     0.09100
H773        H  0.90917526  0.91083311  0.73483399     0.07000
H774        H  0.91004850  0.86171755  0.75994634     0.08200
H775        H  0.89905629  0.84580469  0.72577281     0.07200
H776        H  0.15670240  0.84122393  0.74966002     0.02100
H777        H  0.15614953  0.89487912  0.72710902     0.02600
H778        H  0.15207455  0.83163853  0.71418262     0.06100
H779        H  0.07323036  0.04487926  0.74866079     0.05100
H780        H  0.02494489  0.99723649  0.74883287    -0.00700
H781        H  0.08054740  0.98980342  0.72799351     0.00800
H782        H  0.14433830  0.87359836  0.84421244     0.04500
H783        H  0.19323340  0.92008233  0.84688912     0.06400
H784        H  0.19994214  0.86975287  0.82324195     0.07300
C785        C  0.83244557  0.82570080  0.53176060    -0.22300
C786        C  0.80264367  0.78621371  0.52181318     0.09600
C787        C  0.78746011  0.74660924  0.53894213     0.10000
C788        C  0.80158768  0.74808611  0.56600597    -0.17300
C789        C  0.83178638  0.78743054  0.57602615    -0.27700
C790        C  0.84696756  0.82715600  0.55871901     0.18400
C791        C  0.78719994  0.78834364  0.49343015     0.12300
C792        C  0.75740203  0.70245843  0.52853178    -0.12000
H793        H  0.78992827  0.71783359  0.57932461     0.12600
C794        C  0.87639928  0.87273247  0.56799795    -0.22900
H795        H  0.84362973  0.85620011  0.51844101     0.08200
C796        C  0.74177938  0.81197467  0.48566796     0.04600
C797        C  0.73183150  0.81905164  0.45832575    -0.20100
C798        C  0.76766144  0.80575122  0.43885842    -0.12400
C799        C  0.81166606  0.77934929  0.44658502     0.13300
C800        C  0.82089348  0.77092198  0.47386050    -0.22800
C801        C  0.70539176  0.83243203  0.50621850    -0.05900
H802        H  0.69769485  0.83834521  0.45225328     0.14800
C803        C  0.84961224  0.75980476  0.42660788    -0.16100
H804        H  0.85544845  0.75225176  0.47995273     0.09100
H805        H  0.85537168  0.90757596  0.56266943     0.07000
H806        H  0.91377150  0.87362644  0.55783204     0.08200
H807        H  0.88238952  0.87378812  0.58992062     0.07200
H808        H  0.77917892  0.68305679  0.51254097     0.02100
H809        H  0.72097596  0.71565706  0.52015332     0.02600
H810        H  0.74903585  0.67453321  0.54459257     0.06100
H811        H  0.67214375  0.85051665  0.49667596     0.05100
H812        H  0.72466769  0.86125252  0.51871897    -0.00700
H813        H  0.69150436  0.80146227  0.51931395     0.00800
H814        H  0.88640792  0.77906065  0.42974352     0.04500
H815        H  0.83785019  0.76556313  0.40552603     0.06400
H816        H  0.85453060  0.71854600  0.42962520     0.07300
C817        C  0.65925472  0.00474146  0.62545336    -0.22300
C818        C  0.66866419  0.99946327  0.65293943     0.09600
C819        C  0.65079996  0.03637010  0.67090619     0.10000
C820        C  0.62636257  0.07925073  0.66076873    -0.17300
C821        C  0.61987599  0.08639059  0.63305933    -0.27700
C822        C  0.63562968  0.04794237  0.61511764     0.18400
C823        C  0.70330959  0.95883833  0.66169292     0.12300
C824        C  0.65851078  0.03102566  0.70067395    -0.12000
H825        H  0.61428050  0.10859469  0.67449136     0.12600
C826        C  0.63235633  0.05208310  0.58498262    -0.22900
H827        H  0.67354278  0.97638504  0.61173366     0.08200
C828        C  0.68885853  0.90754956  0.66165059     0.04600
C829        C  0.72552172  0.87038540  0.66647561    -0.20100
C830        C  0.77639425  0.88345006  0.67082310    -0.12400
C831        C  0.78997596  0.93502537  0.67263036     0.13300
C832        C  0.75332020  0.97201259  0.66779996    -0.22800
C833        C  0.63519868  0.89207401  0.65582925    -0.05900
H834        H  0.71504380  0.83087267  0.66499043     0.14800
C835        C  0.84264549  0.95238017  0.67950408    -0.16100
H836        H  0.76419955  0.01154056  0.66801362     0.09100
H837        H  0.60846869  0.02090576  0.57716795     0.07000
H838        H  0.67079100  0.04861400  0.57618579     0.08200
H839        H  0.61658652  0.08803800  0.57765690     0.07200
H840        H  0.69945031  0.03045418  0.70537338     0.02100
H841        H  0.64086279  0.99531457  0.70777082     0.02600
H842        H  0.64120529  0.06282428  0.71189528     0.06100
H843        H  0.63018474  0.85045654  0.65702306     0.05100
H844        H  0.62443145  0.90435497  0.63536051    -0.00700
H845        H  0.60937827  0.90979032  0.67063708     0.00800
H846        H  0.85915124  0.97333805  0.66227316     0.04500
H847        H  0.86812093  0.92080129  0.68484663     0.06400
H848        H  0.84102241  0.97791971  0.69711642     0.07300
C849        C  0.80828989  0.53945499  0.60011612    -0.22300
C850        C  0.79051348  0.50512153  0.61934482     0.09600
C851        C  0.80418837  0.51152524  0.64647777     0.10000
C852        C  0.83242555  0.55417821  0.65405623    -0.17300
C853        C  0.84675569  0.59081238  0.63513175    -0.27700
C854        C  0.83660653  0.58206029  0.60762118     0.18400
C855        C  0.75430896  0.46503414  0.61125091     0.12300
C856        C  0.78677548  0.47461498  0.66760325    -0.12000
H857        H  0.84000746  0.56081345  0.67510099     0.12600
C858        C  0.85479351  0.61694079  0.58568890    -0.22900
H859        H  0.79862635  0.53385489  0.57922828     0.08200
C860        C  0.70187674  0.47446614  0.61059264     0.04600
C861        C  0.66811975  0.43404513  0.60695839    -0.20100
C862        C  0.68548058  0.38426030  0.60373632    -0.12400
C863        C  0.73845357  0.37553813  0.60257634     0.13300
C864        C  0.77208213  0.41614258  0.60640206    -0.22800
C865        C  0.68154922  0.52701612  0.61467512    -0.05900
H866        H  0.62780458  0.44112904  0.60760287     0.14800
C867        C  0.76015939  0.32338368  0.59891687    -0.16100
H868        H  0.81246799  0.40944368  0.60674151     0.09100
H869        H  0.82186215  0.63283906  0.57489947     0.07000
H870        H  0.87814476  0.59526081  0.57122159     0.08200
H871        H  0.87850126  0.64841056  0.59322010     0.07200
H872        H  0.80166112  0.43642646  0.66298884     0.02100
H873        H  0.74485005  0.47315085  0.66809235     0.02600
H874        H  0.80020567  0.48547414  0.68786424     0.06100
H875        H  0.63963103  0.52784491  0.61375656     0.05100
H876        H  0.69647603  0.55247334  0.59879796    -0.00700
H877        H  0.69329644  0.54150359  0.63457653     0.00800
H878        H  0.74818937  0.30778195  0.57930168     0.04500
H879        H  0.74716467  0.29819115  0.61537957     0.06400
H880        H  0.80212792  0.32378051  0.59916396     0.07300
C881        C  0.07476191  0.74642020  0.56636947    -0.22300
C882        C  0.09312155  0.69696855  0.56482999     0.09600
C883        C  0.08403741  0.66316377  0.58613933     0.10000
C884        C  0.05358300  0.67849754  0.60771605    -0.17300
C885        C  0.03223058  0.72716658  0.60869487    -0.27700
C886        C  0.04463646  0.76221897  0.58804299     0.18400
C887        C  0.11722278  0.68002319  0.53953740     0.12300
C888        C  0.10573067  0.61060333  0.58580189    -0.12000
H889        H  0.04540265  0.65172788  0.62361202     0.12600
C890        C  0.02478961  0.81555722  0.58780691    -0.22900
H891        H  0.08243500  0.77217224  0.54992544     0.08200
C892        C  0.08800394  0.65814673  0.51898836     0.04600
C893        C  0.11155692  0.64327970  0.49508221    -0.20100
C894        C  0.16361652  0.65058643  0.49089889    -0.12400
C895        C  0.19296472  0.67249952  0.51161761     0.13300
C896        C  0.16929598  0.68679526  0.53574750    -0.22800
C897        C  0.03171850  0.65123493  0.52214137    -0.05900
H898        H  0.08882399  0.62690023  0.47926925     0.14800
C899        C  0.24923777  0.67978865  0.50878150    -0.16100
H900        H  0.19136666  0.70357581  0.55169840     0.09100
H901        H  0.98289264  0.81518119  0.58742754     0.07000
H902        H  0.03793414  0.83692641  0.56990809     0.08200
H903        H  0.03837515  0.83611850  0.60577334     0.07200
H904        H  0.14759369  0.61280070  0.58474225     0.02100
H905        H  0.09156391  0.58954735  0.56813494     0.02600
H906        H  0.09523075  0.58898993  0.60409443     0.06100
H907        H  0.01451195  0.63389030  0.50407679     0.05100
H908        H  0.01351771  0.68845899  0.52545119     0.02500
H909        H  0.02352711  0.62628395  0.53951736     0.00800
H910        H  0.25754562  0.70753254  0.49265881     0.04500
H911        H  0.26748458  0.64313640  0.50401706     0.06400
H912        H  0.26635262  0.69443193  0.52753074     0.07300
C913        C  0.83688568  0.67008266  0.78706567    -0.22300
C914        C  0.80317608  0.62919178  0.78631940     0.09600
C915        C  0.78290315  0.61373938  0.76153005     0.10000
C916        C  0.79793746  0.63860212  0.73790589    -0.17300
C917        C  0.83330391  0.67834824  0.73835955    -0.27700
C918        C  0.85225918  0.69493072  0.76343963     0.18400
C919        C  0.79109855  0.60172020  0.81157368     0.12300
C920        C  0.74649070  0.57003284  0.75995252    -0.12000
H921        H  0.78327677  0.62565783  0.71884758     0.12600
C922        C  0.88757050  0.73949463  0.76563347    -0.22900
H923        H  0.85181194  0.68205649  0.80624235     0.08200
C924        C  0.82378179  0.56446576  0.82181200     0.04600
C925        C  0.81030317  0.53818752  0.84524291    -0.20100
C926        C  0.76434132  0.54746955  0.85866923    -0.12400
C927        C  0.73162798  0.58521875  0.84829689     0.13300
C928        C  0.74574250  0.61203031  0.82502297    -0.22800
C929        C  0.87238961  0.55158486  0.80761148    -0.05900
H930        H  0.83535316  0.50901492  0.85263276     0.14800
C931        C  0.68201898  0.59799052  0.86152513    -0.16100
H932        H  0.72088380  0.64073124  0.81695570     0.09100
H933        H  0.92433472  0.73094648  0.75594968     0.07000
H934        H  0.89541611  0.74933645  0.78684851     0.08200
H935        H  0.87017069  0.77291931  0.75593320     0.07200
H936        H  0.71213787  0.57841611  0.77194577     0.02100
H937        H  0.76469146  0.53542136  0.76792372     0.02600
H938        H  0.73461873  0.56243146  0.73900940     0.06100
H939        H  0.89323807  0.52096835  0.81802855     0.05100
H940        H  0.89725568  0.58537885  0.80673541    -0.00700
H941        H  0.86411342  0.53872995  0.78691145     0.00800
H942        H  0.68842459  0.60845971  0.88278521     0.04500
H943        H  0.65587120  0.56523619  0.86038539     0.06400
H944        H  0.66312287  0.63033520  0.85153149     0.07300
loop_ 
_geom_bond_atom_site_label_1 
_geom_bond_atom_site_label_2 
_geom_bond_distance 
_geom_bond_site_symmetry_2 
_ccdc_geom_bond_type 
O1          Cr19   2.013       .  S
O1            C9   1.265       .  A
O2          Cr19   1.972       .  S
O2            C3   1.260       .  A
C3            O4   1.267       .  A
C3          C789   1.473       .  S
O4          Cr20   2.010       .  S
O5          Cr20   1.961       .  S
O5            C6   1.254       .  A
C6            O7   1.270       .  A
C6          C853   1.480       .  S
O7          Cr21   2.032       .  S
O8          Cr21   1.979       .  S
O8            C9   1.261       .  A
C9          C885   1.494   1_655  S
O10         Cr19   1.973       .  S
O10          C18   1.261       .  A
O11         Cr19   2.008       .  S
O11          C12   1.266       .  A
C12          O13   1.259       .  A
C12         C830   1.477       .  S
O13         Cr20   1.973       .  S
O14         Cr20   2.021       .  S
O14          C15   1.270       .  A
C15          O16   1.260       .  A
C15         C917   1.489       .  S
O16         Cr21   1.974       .  S
O17         Cr21   2.030       .  S
O17          C18   1.272       .  A
C18         C757   1.485   1_655  S
Cr19         O22   1.768       .  S
Cr20         O22   1.768       .  S
Cr21         O22   1.769       .  S
O23         Cr41   1.980       .  S
O23          C31   1.260       .  A
O24         Cr41   1.995       .  S
O24          C25   1.263       .  A
C25          O26   1.264       .  A
C25         C725   1.484       .  S
O26         Cr42   1.983       .  S
O27         Cr42   1.991       .  S
O27          C28   1.258       .  A
C28          O29   1.259       .  A
C28         C670   1.472       .  S
O29         Cr43   1.997       .  S
O30         Cr43   2.007       .  S
O30          C31   1.265       .  A
C31         C629   1.485       .  S
O32         Cr41   1.996       .  S
O32          C40   1.264       .  A
O33         Cr41   1.992       .  S
O33          C34   1.262       .  A
C34          O35   1.262       .  A
C34         C702   1.490       .  S
O35         Cr42   1.991       .  S
O36         Cr42   1.977       .  S
O36          C37   1.263       .  A
C37          O38   1.272       .  A
C37         C894   1.486       .  S
O38         Cr43   2.018       .  S
O39         Cr43   1.984       .  S
O39          C40   1.263       .  A
C40         C597   1.484       .  S
Cr41         O44   1.770       .  S
Cr42         O44   1.769       .  S
Cr43         O44   1.772       .  S
O45         Cr63   1.977       .  S
O45          C53   1.259   1_455  A
O46         Cr63   2.005       .  S
O46          C47   1.266       .  A
C47          O48   1.263       .  A
C47         C565   1.473       .  S
O48         Cr64   1.988       .  S
O49         Cr64   1.987       .  S
O49          C50   1.257       .  A
C50          O51   1.259       .  A
C50         C510   1.469       .  S
O51         Cr65   1.993       .  S
O52         Cr65   2.011   1_655  S
O52          C53   1.265       .  A
C53         C469   1.493       .  S
O54         Cr63   2.006   1_655  S
O54          C62   1.266       .  A
O55         Cr63   1.988       .  S
O55          C56   1.261       .  A
C56          O57   1.259       .  A
C56         C533   1.482       .  S
O57         Cr64   1.987       .  S
O58         Cr64   1.986       .  S
O58          C59   1.265       .  A
C59          O60   1.268       .  A
C59         C638   1.492       .  S
O60         Cr65   2.009       .  S
O61         Cr65   1.994       .  S
O61          C62   1.264   1_455  A
C62         C446   1.498       .  S
Cr63         O66   1.778       .  S
Cr64         O66   1.779       .  S
Cr65         O66   1.777       .  S
O67         Cr85   2.008       .  S
O67          C75   1.262       .  A
O68         Cr85   1.967       .  S
O68          C69   1.257       .  A
C69          O70   1.267       .  A
C69         C341   1.483       .  S
O70         Cr86   2.013       .  S
O71         Cr86   1.957       .  S
O71          C72   1.254       .  A
C72          O73   1.270       .  A
C72         C414   1.486       .  S
O73         Cr87   2.029       .  S
O74         Cr87   1.983       .  S
O74          C75   1.259       .  A
C75         C926   1.496       .  S
O76         Cr85   1.962       .  S
O76          C84   1.259       .  A
O77         Cr85   2.009       .  S
O77          C78   1.267       .  A
C78          O79   1.262       .  A
C78         C382   1.482       .  S
O79         Cr86   1.979       .  S
O80         Cr86   2.019       .  S
O80          C81   1.269       .  A
C81          O82   1.262       .  A
C81         C478   1.486       .  S
O82         Cr87   1.989       .  S
O83         Cr87   2.037       .  S
O83          C84   1.275       .  A
C84         C318   1.491       .  S
Cr85         O88   1.767       .  S
Cr86         O88   1.768       .  S
Cr87         O88   1.773       .  S
O89        Cr107   2.014       .  S
O89          C97   1.265   1_545  A
O90        Cr107   1.976       .  S
O90          C91   1.262       .  A
C91          O92   1.269       .  A
C91         C574   1.498       .  S
O92        Cr108   2.020       .  S
O93        Cr108   1.957       .  S
O93          C94   1.255       .  A
C94          O95   1.269       .  A
C94         C373   1.482       .  S
O95        Cr109   2.029       .  S
O96        Cr109   1.977       .  S
O96          C97   1.260   1_545  A
C97         C254   1.492       .  S
O98        Cr107   1.978       .  S
O98         C106   1.262       .  A
O99        Cr107   2.012       .  S
O99         C100   1.267       .  A
C100        O101   1.257       .  A
C100        C405   1.488       .  S
O101       Cr108   1.971       .  S
O102       Cr108   2.020       .  S
O102        C103   1.270       .  A
C103        O104   1.260       .  A
C103        C277   1.490       .  S
O104       Cr109   1.975       .  S
O105       Cr109   2.029       .  S
O105        C106   1.272       .  A
C106        C766   1.486   1_545  S
Cr107       O110   1.768       .  S
Cr108       O110   1.765       .  S
Cr109       O110   1.769       .  S
O111       Cr129   2.015       .  S
O111        C119   1.265       .  A
O112       Cr129   1.965       .  S
O112        C113   1.259       .  A
C113        O114   1.267       .  A
C113        C350   1.483       .  S
O114       Cr130   2.017       .  S
O115       Cr130   1.961       .  S
O115        C116   1.256       .  A
C116        O117   1.266       .  A
C116        C821   1.476       .  S
O117       Cr131   2.016       .  S
O118       Cr131   1.979       .  S
O118        C119   1.259       .  A
C119        C286   1.494       .  S
O120       Cr129   1.962       .  S
O120        C128   1.258       .  A
O121       Cr129   2.018       .  S
O121        C122   1.268       .  A
C122        O123   1.259       .  A
C122        C862   1.490       .  S
O123       Cr130   1.975       .  S
O124       Cr130   2.017       .  S
O124        C125   1.269       .  A
C125        O126   1.265       .  A
C125        C222   1.496       .  S
O126       Cr131   1.984       .  S
O127       Cr131   2.027       .  S
O127        C128   1.273       .  A
C128        C606   1.496       .  S
Cr129       O132   1.768       .  S
Cr130       O132   1.766       .  S
Cr131       O132   1.772       .  S
O133       Cr151   1.992       .  S
O133        C141   1.260       .  A
O134       Cr151   2.005       .  S
O134        C135   1.267       .  A
C135        O136   1.261       .  A
C135        C798   1.471       .  S
O136       Cr152   1.982       .  S
O137       Cr152   1.991       .  S
O137        C138   1.260       .  A
C138        O139   1.263       .  A
C138        C693   1.472       .  S
O139       Cr153   2.003       .  S
O140       Cr153   2.009       .  S
O140        C141   1.262       .  A
C141        C213   1.496   1_565  S
O142       Cr151   2.019       .  S
O142        C150   1.272       .  A
O143       Cr151   1.994       .  S
O143        C144   1.264       .  A
C144        O145   1.260       .  A
C144        C661   1.494       .  S
O145       Cr152   1.993       .  S
O146       Cr152   1.989       .  S
O146        C147   1.266       .  A
C147        O148   1.266       .  A
C147        C181   1.498       .  S
O148       Cr153   2.006       .  S
O149       Cr153   1.985       .  S
O149        C150   1.263       .  A
C150        C437   1.508   1_565  S
Cr151       O154   1.771       .  S
Cr152       O154   1.772       .  S
Cr153       O154   1.770       .  S
O155       Cr173   2.007       .  S
O155        C163   1.263       .  A
O156       Cr173   1.964       .  S
O156        C157   1.258       .  A
C157        O158   1.265       .  A
C157        C734   1.472       .  S
O158       Cr174   2.010       .  S
O159       Cr174   1.953       .  S
O159        C160   1.253       .  A
C160        O161   1.268       .  A
C160        C542   1.474       .  S
O161       Cr175   2.025       .  S
O162       Cr175   1.980       .  S
O162        C163   1.259       .  A
C163        C190   1.477       .  S
O164       Cr173   1.971       .  S
O164        C172   1.262       .  A
O165       Cr173   2.012       .  S
O165        C166   1.267       .  A
C166        O167   1.258       .  A
C166        C501   1.486       .  S
O167       Cr174   1.973       .  S
O168       Cr174   2.013       .  S
O168        C169   1.269       .  A
C169        O170   1.260       .  A
C169        C245   1.489       .  S
O170       Cr175   1.974       .  S
O171       Cr175   2.026       .  S
O171        C172   1.273       .  A
C172        C309   1.494       .  S
Cr173       O176   1.766       .  S
Cr174       O176   1.769       .  S
Cr175       O176   1.770       .  S
C177        C178   1.396       .  A
C177        C182   1.403       .  A
C177        H187   1.085       .  S
C178        C183   1.483       .  S
C178        C179   1.409       .  A
C179        C180   1.408       .  A
C179        C184   1.506       .  S
C180        C181   1.411       .  A
C180        H185   1.083       .  S
C181        C182   1.427       .  A
C182        C186   1.510       .  S
C183        C188   1.412       .  A
C183        C192   1.402       .  A
C184        H200   1.110       .  S
C184        H201   1.108       .  S
C184        H202   1.111       .  S
C186        H197   1.111       .  S
C186        H198   1.110       .  S
C186        H199   1.108       .  S
C188        C189   1.404       .  A
C188        C193   1.508       .  S
C189        C190   1.404       .  A
C189        H194   1.084       .  S
C190        C191   1.416       .  A
C191        C192   1.405       .  A
C191        C195   1.507       .  S
C192        H196   1.084       .  S
C193        H203   1.111       .  S
C193        H204   1.110       .  S
C193        H205   1.108       .  S
C195        H206   1.110       .  S
C195        H207   1.107       .  S
C195        H208   1.110       .  S
C209        C210   1.401       .  A
C209        C214   1.407       .  A
C209        H219   1.084       .  S
C210        C215   1.491       .  S
C210        C211   1.411       .  A
C211        C212   1.410       .  A
C211        C216   1.505       .  S
C212        C213   1.409       .  A
C212        H217   1.084       .  S
C213        C214   1.419       .  A
C214        C218   1.505   1_545  S
C215        C220   1.411       .  A
C215        C224   1.402       .  A
C216        H232   1.110       .  S
C216        H233   1.110       .  S
C216        H234   1.111       .  S
C218        H229   1.111       .  S
C218        H230   1.110       .  S
C218        H231   1.110       .  S
C220        C221   1.407       .  A
C220        C225   1.506       .  S
C221        C222   1.408       .  A
C221        H226   1.084       .  S
C222        C223   1.421       .  A
C223        C224   1.410       .  A
C223        C227   1.508       .  S
C224        H228   1.084       .  S
C225        H235   1.111       .  S
C225        H236   1.110       .  S
C225        H237   1.110       .  S
C227        H238   1.109       .  S
C227        H239   1.110       .  S
C227        H240   1.111       .  S
C241        C242   1.401       .  A
C241        C246   1.407   1_556  A
C241        H251   1.084       .  S
C242        C247   1.484       .  S
C242        C243   1.410   1_556  A
C243        C244   1.403       .  A
C243        C248   1.507       .  S
C244        C245   1.408       .  A
C244        H249   1.084       .  S
C245        C246   1.420       .  A
C246        C250   1.508       .  S
C247        C252   1.409       .  A
C247        C256   1.400       .  A
C248        H264   1.110       .  S
C248        H265   1.111       .  S
C248        H266   1.111       .  S
C250        H261   1.109       .  S
C250        H262   1.111   1_554  S
C250        H263   1.110       .  S
C252        C253   1.402       .  A
C252        C257   1.507       .  S
C253        C254   1.408       .  A
C253        H258   1.084   1_565  S
C254        C255   1.421       .  A
C255        C256   1.407       .  A
C255        C259   1.506       .  S
C256        H260   1.084       .  S
C257        H267   1.111       .  S
C257        H268   1.110       .  S
C257        H269   1.111       .  S
C259        H270   1.107       .  S
C259        H271   1.109       .  S
C259        H272   1.111       .  S
C273        C274   1.402       .  A
C273        C278   1.409       .  A
C273        H283   1.084       .  S
C274        C279   1.487       .  S
C274        C275   1.411       .  A
C275        C276   1.404       .  A
C275        C280   1.507       .  S
C276        C277   1.406       .  A
C276        H281   1.083       .  S
C277        C278   1.420       .  A
C278        C282   1.508       .  S
C279        C284   1.410       .  A
C279        C288   1.402       .  A
C280        H296   1.110       .  S
C280        H297   1.111       .  S
C280        H298   1.111       .  S
C282        H293   1.109       .  S
C282        H294   1.111       .  S
C282        H295   1.111       .  S
C284        C285   1.404       .  A
C284        C289   1.507       .  S
C285        C286   1.409       .  A
C285        H290   1.084       .  S
C286        C287   1.421       .  A
C287        C288   1.409       .  A
C287        C291   1.507       .  S
C288        H292   1.084       .  S
C289        H299   1.111       .  S
C289        H300   1.110       .  S
C289        H301   1.110       .  S
C291        H302   1.110       .  S
C291        H303   1.109       .  S
C291        H304   1.111       .  S
C305        C306   1.400       .  A
C305        C310   1.406       .  A
C305        H315   1.084       .  S
C306        C311   1.486       .  S
C306        C307   1.410       .  A
C307        C308   1.407       .  A
C307        C312   1.506       .  S
C308        C309   1.409       .  A
C308        H313   1.084       .  S
C309        C310   1.423       .  A
C310        C314   1.509       .  S
C311        C316   1.411       .  A
C311        C320   1.398   1_554  A
C312        H328   1.110   1_554  S
C312        H329   1.110       .  S
C312        H330   1.111       .  S
C314        H325   1.110       .  S
C314        H326   1.111       .  S
C314        H327   1.110       .  S
C316        C317   1.409   1_554  A
C316        C321   1.505       .  S
C317        C318   1.407       .  A
C317        H322   1.084       .  S
C318        C319   1.422       .  A
C319        C320   1.404       .  A
C319        C323   1.509       .  S
C320        H324   1.084       .  S
C321        H331   1.111       .  S
C321        H332   1.110       .  S
C321        H333   1.110       .  S
C323        H334   1.108       .  S
C323        H335   1.111       .  S
C323        H336   1.111       .  S
C337        C338   1.399       .  A
C337        C342   1.401       .  A
C337        H347   1.084       .  S
C338        C343   1.478       .  S
C338        C339   1.409       .  A
C339        C340   1.403       .  A
C339        C344   1.507       .  S
C340        C341   1.407       .  A
C340        H345   1.084       .  S
C341        C342   1.420       .  A
C342        C346   1.510       .  S
C343        C348   1.410       .  A
C343        C352   1.401       .  A
C344        H360   1.110       .  S
C344        H361   1.110       .  S
C344        H362   1.111       .  S
C346        H357   1.110       .  S
C346        H358   1.110       .  S
C346        H359   1.109       .  S
C348        C349   1.399       .  A
C348        C353   1.508       .  S
C349        C350   1.406       .  A
C349        H354   1.084       .  S
C350        C351   1.418       .  A
C351        C352   1.406       .  A
C351        C355   1.507       .  S
C352        H356   1.084       .  S
C353        H363   1.111       .  S
C353        H364   1.109       .  S
C353        H365   1.110       .  S
C355        H366   1.109       .  S
C355        H367   1.111       .  S
C355        H368   1.111       .  S
C369        C370   1.402       .  A
C369        C374   1.406       .  A
C369        H379   1.085       .  S
C370        C375   1.485       .  S
C370        C371   1.408       .  A
C371        C372   1.403       .  A
C371        C376   1.506       .  S
C372        C373   1.408       .  A
C372        H377   1.085       .  S
C373        C374   1.420       .  A
C374        C378   1.508       .  S
C375        C380   1.410       .  A
C375        C384   1.403       .  A
C376        H392   1.110       .  S
C376        H393   1.110       .  S
C376        H394   1.111       .  S
C378        H389   1.110       .  S
C378        H390   1.111       .  S
C378        H391   1.103       .  S
C380        C381   1.405       .  A
C380        C385   1.506       .  S
C381        C382   1.406       .  A
C381        H386   1.084       .  S
C382        C383   1.416       .  A
C383        C384   1.404       .  A
C383        C387   1.507       .  S
C384        H388   1.085       .  S
C385        H395   1.111       .  S
C385        H396   1.110       .  S
C385        H397   1.110       .  S
C387        H398   1.110       .  S
C387        H399   1.108       .  S
C387        H400   1.111       .  S
C401        C402   1.398       .  A
C401        C406   1.406       .  A
C401        H411   1.084       .  S
C402        C407   1.480   1_455  S
C402        C403   1.410       .  A
C403        C404   1.401       .  A
C403        C408   1.508   1_455  S
C404        C405   1.406       .  A
C404        H409   1.084       .  S
C405        C406   1.423       .  A
C406        C410   1.508       .  S
C407        C412   1.411       .  A
C407        C416   1.398       .  A
C408        H424   1.110       .  S
C408        H425   1.110       .  S
C408        H426   1.111       .  S
C410        H421   1.110       .  S
C410        H422   1.111       .  S
C410        H423   1.110       .  S
C412        C413   1.404       .  A
C412        C417   1.507   1_655  S
C413        C414   1.403       .  A
C413        H418   1.078       .  S
C414        C415   1.421       .  A
C415        C416   1.403       .  A
C415        C419   1.509       .  S
C416        H420   1.084       .  S
C417        H427   1.111       .  S
C417        H428   1.110       .  S
C417        H429   1.110       .  S
C419        H430   1.111       .  S
C419        H431   1.110       .  S
C419        H432   1.108       .  S
C433        C434   1.401       .  A
C433        C438   1.411       .  A
C433        H443   1.084       .  S
C434        C439   1.493       .  S
C434        C435   1.409       .  A
C435        C436   1.408       .  A
C435        C440   1.507       .  S
C436        C437   1.412       .  A
C436        H441   1.083       .  S
C437        C438   1.427       .  A
C438        C442   1.508       .  S
C439        C444   1.411       .  A
C439        C448   1.403       .  A
C440        H456   1.110       .  S
C440        H457   1.110       .  S
C440        H458   1.111       .  S
C442        H453   1.111       .  S
C442        H454   1.110       .  S
C442        H455   1.110   1_545  S
C444        C445   1.408       .  A
C444        C449   1.507       .  S
C445        C446   1.410       .  A
C445        H450   1.084       .  S
C446        C447   1.420       .  A
C447        C448   1.411       .  A
C447        C451   1.506       .  S
C448        H452   1.084       .  S
C449        H459   1.111       .  S
C449        H460   1.110       .  S
C449        H461   1.110       .  S
C451        H462   1.111       .  S
C451        H463   1.110       .  S
C451        H464   1.109       .  S
C465        C466   1.401       .  A
C465        C470   1.407       .  A
C465        H475   1.084       .  S
C466        C471   1.492       .  S
C466        C467   1.413       .  A
C467        C468   1.407       .  A
C467        C472   1.507       .  S
C468        C469   1.407       .  A
C468        H473   1.084       .  S
C469        C470   1.420       .  A
C470        C474   1.506       .  S
C471        C476   1.416       .  A
C471        C480   1.400       .  A
C472        H488   1.109       .  S
C472        H489   1.110       .  S
C472        H490   1.111       .  S
C474        H485   1.111       .  S
C474        H486   1.107       .  S
C474        H487   1.109       .  S
C476        C477   1.412       .  A
C476        C481   1.505       .  S
C477        C478   1.404   1_554  A
C477        H482   1.084       .  S
C478        C479   1.414       .  A
C479        C480   1.402   1_556  A
C479        C483   1.502       .  S
C480        H484   1.084       .  S
C481        H491   1.111       .  S
C481        H492   1.109       .  S
C481        H493   1.110       .  S
C483        H494   1.111       .  S
C483        H495   1.108       .  S
C483        H496   1.110       .  S
C497        C498   1.399       .  A
C497        C502   1.407       .  A
C497        H507   1.084       .  S
C498        C503   1.481       .  S
C498        C499   1.410       .  A
C499        C500   1.402       .  A
C499        C504   1.507       .  S
C500        C501   1.405       .  A
C500        H505   1.084       .  S
C501        C502   1.422       .  A
C502        C506   1.508       .  S
C503        C508   1.412       .  A
C503        C512   1.401       .  A
C504        H520   1.110       .  S
C504        H521   1.110       .  S
C504        H522   1.111       .  S
C506        H517   1.110       .  S
C506        H518   1.111       .  S
C506        H519   1.110       .  S
C508        C509   1.402       .  A
C508        C513   1.508       .  S
C509        C510   1.402       .  A
C509        H514   1.085       .  S
C510        C511   1.414       .  A
C511        C512   1.405       .  A
C511        C515   1.507       .  S
C512        H516   1.084       .  S
C513        H523   1.111       .  S
C513        H524   1.110       .  S
C513        H525   1.110       .  S
C515        H526   1.110       .  S
C515        H527   1.107       .  S
C515        H528   1.111       .  S
C529        C530   1.398       .  A
C529        C534   1.404       .  A
C529        H539   1.084       .  S
C530        C535   1.478   1_545  S
C530        C531   1.411       .  A
C531        C532   1.402       .  A
C531        C536   1.507   1_545  S
C532        C533   1.405       .  A
C532        H537   1.084       .  S
C533        C534   1.421       .  A
C534        C538   1.509       .  S
C535        C540   1.413       .  A
C535        C544   1.398       .  A
C536        H552   1.110       .  S
C536        H553   1.110       .  S
C536        H554   1.111       .  S
C538        H549   1.108       .  S
C538        H550   1.111       .  S
C538        H551   1.110       .  S
C540        C541   1.404       .  A
C540        C545   1.507   1_565  S
C541        C542   1.402       .  A
C541        H546   1.084       .  S
C542        C543   1.418       .  A
C543        C544   1.401       .  A
C543        C547   1.509       .  S
C544        H548   1.084       .  S
C545        H555   1.111       .  S
C545        H556   1.110       .  S
C545        H557   1.110       .  S
C547        H558   1.110       .  S
C547        H559   1.109       .  S
C547        H560   1.110       .  S
C561        C562   1.400       .  A
C561        C566   1.401       .  A
C561        H571   1.085       .  S
C562        C567   1.482       .  S
C562        C563   1.412       .  A
C563        C564   1.407       .  A
C563        C568   1.506       .  S
C564        C565   1.404       .  A
C564        H569   1.084       .  S
C565        C566   1.414       .  A
C566        C570   1.506       .  S
C567        C572   1.409   1_554  A
C567        C576   1.399   1_554  A
C568        H584   1.110       .  S
C568        H585   1.109       .  S
C568        H586   1.111       .  S
C570        H581   1.110       .  S
C570        H582   1.111       .  S
C570        H583   1.105       .  S
C572        C573   1.403       .  A
C572        C577   1.508   1_556  S
C573        C574   1.411       .  A
C573        H578   1.083       .  S
C574        C575   1.424       .  A
C575        C576   1.407       .  A
C575        C579   1.508       .  S
C576        H580   1.084       .  S
C577        H587   1.111       .  S
C577        H588   1.110       .  S
C577        H589   1.109       .  S
C579        H590   1.110       .  S
C579        H591   1.110       .  S
C579        H592   1.111       .  S
C593        C594   1.398       .  A
C593        C598   1.402       .  A
C593        H603   1.085       .  S
C594        C599   1.482       .  S
C594        C595   1.411       .  A
C595        C596   1.405       .  A
C595        C600   1.506       .  S
C596        C597   1.406       .  A
C596        H601   1.084       .  S
C597        C598   1.422       .  A
C598        C602   1.509       .  S
C599        C604   1.409       .  A
C599        C608   1.398       .  A
C600        H616   1.110       .  S
C600        H617   1.110       .  S
C600        H618   1.111       .  S
C602        H613   1.111       .  S
C602        H614   1.110       .  S
C602        H615   1.102       .  S
C604        C605   1.405       .  A
C604        C609   1.506       .  S
C605        C606   1.410       .  A
C605        H610   1.083       .  S
C606        C607   1.426       .  A
C607        C608   1.403       .  A
C607        C611   1.510       .  S
C608        H612   1.085       .  S
C609        H619   1.111       .  S
C609        H620   1.110       .  S
C609        H621   1.110       .  S
C611        H622   1.111       .  S
C611        H623   1.110       .  S
C611        H624   1.110       .  S
C625        C626   1.400       .  A
C625        C630   1.406       .  A
C625        H635   1.085       .  S
C626        C631   1.484       .  S
C626        C627   1.411       .  A
C627        C628   1.405       .  A
C627        C632   1.507       .  S
C628        C629   1.407       .  A
C628        H633   1.085       .  S
C629        C630   1.420       .  A
C630        C634   1.507       .  S
C631        C636   1.410       .  A
C631        C640   1.399       .  A
C632        H648   1.110       .  S
C632        H649   1.109       .  S
C632        H650   1.111       .  S
C634        H645   1.111       .  S
C634        H646   1.110       .  S
C634        H647   1.103       .  S
C636        C637   1.408       .  A
C636        C641   1.506       .  S
C637        C638   1.409       .  A
C637        H642   1.084       .  S
C638        C639   1.421       .  A
C639        C640   1.404       .  A
C639        C643   1.508       .  S
C640        H644   1.084       .  S
C641        H651   1.111       .  S
C641        H652   1.110       .  S
C641        H653   1.109       .  S
C643        H654   1.111       .  S
C643        H655   1.110       .  S
C643        H656   1.109       .  S
C657        C658   1.398       .  A
C657        C662   1.406       .  A
C657        H667   1.084       .  S
C658        C663   1.485   1_655  S
C658        C659   1.411       .  A
C659        C660   1.406       .  A
C659        C664   1.506   1_655  S
C660        C661   1.407       .  A
C660        H665   1.084       .  S
C661        C662   1.425       .  A
C662        C666   1.509       .  S
C663        C668   1.412       .  A
C663        C672   1.403       .  A
C664        H680   1.110       .  S
C664        H681   1.110       .  S
C664        H682   1.111       .  S
C666        H677   1.109       .  S
C666        H678   1.111       .  S
C666        H679   1.111       .  S
C668        C669   1.400       .  A
C668        C673   1.505   1_455  S
C669        C670   1.400       .  A
C669        H674   1.085       .  S
C670        C671   1.416       .  A
C671        C672   1.408       .  A
C671        C675   1.507       .  S
C672        H676   1.084       .  S
C673        H683   1.111       .  S
C673        H684   1.110       .  S
C673        H685   1.109       .  S
C675        H686   1.110       .  S
C675        H687   1.108       .  S
C675        H688   1.110       .  S
C689        C690   1.401       .  A
C689        C694   1.399       .  A
C689        H699   1.085       .  S
C690        C695   1.482       .  S
C690        C691   1.410       .  A
C691        C692   1.409       .  A
C691        C696   1.505       .  S
C692        C693   1.405       .  A
C692        H697   1.084       .  S
C693        C694   1.415       .  A
C694        C698   1.508       .  S
C695        C700   1.407       .  A
C695        C704   1.403       .  A
C696        H712   1.110       .  S
C696        H713   1.110       .  S
C696        H714   1.111       .  S
C698        H709   1.110       .  S
C698        H710   1.111       .  S
C698        H711   1.107       .  S
C700        C701   1.402       .  A
C700        C705   1.507       .  S
C701        C702   1.410       .  A
C701        H706   1.084       .  S
C702        C703   1.419       .  A
C703        C704   1.407       .  A
C703        C707   1.507       .  S
C704        H708   1.084       .  S
C705        H715   1.111       .  S
C705        H716   1.110       .  S
C705        H717   1.110       .  S
C707        H718   1.110       .  S
C707        H719   1.110       .  S
C707        H720   1.111       .  S
C721        C722   1.396       .  A
C721        C726   1.397       .  A
C721        H731   1.085       .  S
C722        C727   1.474       .  S
C722        C723   1.407       .  A
C723        C724   1.403       .  A
C723        C728   1.506       .  S
C724        C725   1.408       .  A
C724        H729   1.083       .  S
C725        C726   1.424       .  A
C726        C730   1.510       .  S
C727        C732   1.410       .  A
C727        C736   1.402       .  A
C728        H744   1.110       .  S
C728        H745   1.110       .  S
C728        H746   1.111       .  S
C730        H741   1.110       .  S
C730        H742   1.111       .  S
C730        H743   1.109       .  S
C732        C733   1.397       .  A
C732        C737   1.508       .  S
C733        C734   1.404       .  A
C733        H738   1.084       .  S
C734        C735   1.415       .  A
C735        C736   1.403       .  A
C735        C739   1.508       .  S
C736        H740   1.084       .  S
C737        H747   1.111       .  S
C737        H748   1.109       .  S
C737        H749   1.110       .  S
C739        H750   1.111       .  S
C739        H751   1.110       .  S
C739        H752   1.111       .  S
C753        C754   1.403       .  A
C753        C758   1.406   1_455  A
C753        H763   1.084   1_455  S
C754        C759   1.493       .  S
C754        C755   1.414       .  A
C755        C756   1.408       .  A
C755        C760   1.506       .  S
C756        C757   1.405       .  A
C756        H761   1.084       .  S
C757        C758   1.419   1_455  A
C758        C762   1.509       .  S
C759        C764   1.414       .  A
C759        C768   1.403       .  A
C760        H776   1.109       .  S
C760        H777   1.110       .  S
C760        H778   1.111       .  S
C762        H773   1.110       .  S
C762        H774   1.110       .  S
C762        H775   1.106       .  S
C764        C765   1.407   1_565  A
C764        C769   1.507   1_565  S
C765        C766   1.405   1_545  A
C765        H770   1.084       .  S
C766        C767   1.418       .  A
C767        C768   1.407       .  A
C767        C771   1.506       .  S
C768        H772   1.084       .  S
C769        H779   1.111       .  S
C769        H780   1.109   1_545  S
C769        H781   1.110   1_545  S
C771        H782   1.111       .  S
C771        H783   1.104       .  S
C771        H784   1.110       .  S
C785        C786   1.400       .  A
C785        C790   1.401       .  A
C785        H795   1.085       .  S
C786        C791   1.476       .  S
C786        C787   1.408       .  A
C787        C788   1.403       .  A
C787        C792   1.506       .  S
C788        C789   1.405       .  A
C788        H793   1.083       .  S
C789        C790   1.416       .  A
C790        C794   1.509       .  S
C791        C796   1.411       .  A
C791        C800   1.400       .  A
C792        H808   1.110       .  S
C792        H809   1.109       .  S
C792        H810   1.111       .  S
C794        H805   1.111       .  S
C794        H806   1.110       .  S
C794        H807   1.106       .  S
C796        C797   1.403       .  A
C796        C801   1.507       .  S
C797        C798   1.401       .  A
C797        H802   1.083       .  S
C798        C799   1.414       .  A
C799        C800   1.401       .  A
C799        C803   1.506       .  S
C800        H804   1.085       .  S
C801        H811   1.111       .  S
C801        H812   1.110       .  S
C801        H813   1.109       .  S
C803        H814   1.110       .  S
C803        H815   1.108       .  S
C803        H816   1.110       .  S
C817        C818   1.402   1_545  A
C817        C822   1.403       .  A
C817        H827   1.085   1_545  S
C818        C823   1.481       .  S
C818        C819   1.409   1_565  A
C819        C820   1.402       .  A
C819        C824   1.506       .  S
C820        C821   1.406       .  A
C820        H825   1.085       .  S
C821        C822   1.419       .  A
C822        C826   1.510       .  S
C823        C828   1.410       .  A
C823        C832   1.402       .  A
C824        H840   1.109       .  S
C824        H841   1.110   1_545  S
C824        H842   1.111       .  S
C826        H837   1.110       .  S
C826        H838   1.111       .  S
C826        H839   1.102       .  S
C828        C829   1.404       .  A
C828        C833   1.506       .  S
C829        C830   1.407       .  A
C829        H834   1.084       .  S
C830        C831   1.414       .  A
C831        C832   1.401       .  A
C831        C835   1.507       .  S
C832        H836   1.085   1_565  S
C833        H843   1.111       .  S
C833        H844   1.110       .  S
C833        H845   1.110       .  S
C835        H846   1.110       .  S
C835        H847   1.108       .  S
C835        H848   1.111       .  S
C849        C850   1.400       .  A
C849        C854   1.405       .  A
C849        H859   1.084       .  S
C850        C855   1.485       .  S
C850        C851   1.413       .  A
C851        C852   1.405       .  A
C851        C856   1.506       .  S
C852        C853   1.403       .  A
C852        H857   1.084       .  S
C853        C854   1.419       .  A
C854        C858   1.508       .  S
C855        C860   1.411       .  A
C855        C864   1.399       .  A
C856        H872   1.110       .  S
C856        H873   1.110       .  S
C856        H874   1.111       .  S
C858        H869   1.109       .  S
C858        H870   1.110       .  S
C858        H871   1.109       .  S
C860        C861   1.405       .  A
C860        C865   1.507       .  S
C861        C862   1.406       .  A
C861        H866   1.084       .  S
C862        C863   1.422       .  A
C863        C864   1.407       .  A
C863        C867   1.508       .  S
C864        H868   1.084       .  S
C865        H875   1.111       .  S
C865        H876   1.110       .  S
C865        H877   1.110       .  S
C867        H878   1.110       .  S
C867        H879   1.110       .  S
C867        H880   1.111       .  S
C881        C882   1.400       .  A
C881        C886   1.407       .  A
C881        H891   1.084       .  S
C882        C887   1.483       .  S
C882        C883   1.408       .  A
C883        C884   1.404       .  A
C883        C888   1.507       .  S
C884        C885   1.409       .  A
C884        H889   1.084       .  S
C885        C886   1.423       .  A
C886        C890   1.508       .  S
C887        C892   1.410       .  A
C887        C896   1.401       .  A
C888        H904   1.110       .  S
C888        H905   1.110       .  S
C888        H906   1.111       .  S
C890        H901   1.109   1_455  S
C890        H902   1.111       .  S
C890        H903   1.110       .  S
C892        C893   1.402       .  A
C892        C897   1.508       .  S
C893        C894   1.406       .  A
C893        H898   1.084       .  S
C894        C895   1.419       .  A
C895        C896   1.408       .  A
C895        C899   1.507       .  S
C896        H900   1.084       .  S
C897        H907   1.111       .  S
C897        H908   1.110       .  S
C897        H909   1.110       .  S
C899        H910   1.109       .  S
C899        H911   1.111       .  S
C899        H912   1.111       .  S
C913        C914   1.402       .  A
C913        C918   1.408       .  A
C913        H923   1.084       .  S
C914        C919   1.487       .  S
C914        C915   1.411       .  A
C915        C916   1.405       .  A
C915        C920   1.506       .  S
C916        C917   1.407       .  A
C916        H921   1.084       .  S
C917        C918   1.420       .  A
C918        C922   1.507       .  S
C919        C924   1.410       .  A
C919        C928   1.401       .  A
C920        H936   1.110       .  S
C920        H937   1.110       .  S
C920        H938   1.111       .  S
C922        H933   1.109       .  S
C922        H934   1.111       .  S
C922        H935   1.110       .  S
C924        C925   1.404       .  A
C924        C929   1.507       .  S
C925        C926   1.409       .  A
C925        H930   1.084       .  S
C926        C927   1.422       .  A
C927        C928   1.409       .  A
C927        C931   1.507       .  S
C928        H932   1.084       .  S
C929        H939   1.111       .  S
C929        H940   1.110       .  S
C929        H941   1.110       .  S
C931        H942   1.110       .  S
C931        H943   1.110       .  S
C931        H944   1.111       .  S
