geometry optimzed in LAMMPS
_audit_creation_date              2020-12-01 
_audit_creation_method            'lammps2cif' 
_symmetry_space_group_name_H-M    'P1' 
_symmetry_Int_Tables_number       1 
_symmetry_cell_setting            triclinic 
loop_ 
_symmetry_equiv_pos_as_xyz 
  x,y,z 
_cell_length_a                    52.10505029 
_cell_length_b                    51.974164649275586 
_cell_length_c                    37.967480133578995 
_cell_angle_alpha                 90.47970013233638 
_cell_angle_beta                  89.7614504206671 
_cell_angle_gamma                 89.7178367248033 
loop_ 
_atom_site_label 
_atom_site_type_symbol 
_atom_site_fract_x 
_atom_site_fract_y 
_atom_site_fract_z 
_atom_site_charge 
O1          O  0.81457031  0.76358009  0.36048007    -0.86000
O2          O  0.79371277  0.80617437  0.32106282    -0.83000
C3          C  0.79276100  0.82294684  0.29704449     0.97500
O4          O  0.81329479  0.83432105  0.28808796    -0.83100
O5          O  0.84240725  0.85294924  0.34633003    -0.85700
C6          C  0.85427794  0.85073352  0.37532082     1.02000
O7          O  0.86690647  0.83050797  0.38235008    -0.78500
O8          O  0.83524183  0.78967061  0.39451334    -0.78700
C9          C  0.82383164  0.76868303  0.39028671     1.01900
O10         O  0.84645475  0.75300790  0.30320710    -0.86000
O11         O  0.82320193  0.78938707  0.26362549    -0.83100
C12         C  0.84293809  0.79552194  0.24682366     0.97500
O13         O  0.85933135  0.81038379  0.26047179    -0.83100
O14         O  0.88826657  0.83370111  0.31249627    -0.85700
C15         C  0.90452697  0.81670708  0.32093620     1.02000
O16         O  0.89776402  0.79718130  0.33769571    -0.78500
O17         O  0.86771120  0.75651636  0.35280606    -0.78700
C18         C  0.86179061  0.74382058  0.32541280     1.01900
Cr19       Cr  0.82112693  0.78012852  0.31379436     1.93700
Cr20       Cr  0.85031376  0.83081434  0.30395669     1.93200
Cr21       Cr  0.86532462  0.79424410  0.36418873     1.39100
O22         O  0.84560156  0.80183269  0.32767265    -1.23700
O23         O  0.67465440  0.77051696  0.13998903    -0.86000
O24         O  0.70473545  0.80907312  0.17302974    -0.83000
C25         C  0.71048245  0.82726392  0.19384957     0.97500
O26         O  0.69306425  0.84254351  0.20415712    -0.83100
O27         O  0.66059756  0.86032147  0.14824954    -0.85700
C28         C  0.64368555  0.85842825  0.12427851     1.02000
O29         O  0.62673485  0.84113726  0.12554032    -0.78500
O30         O  0.64904241  0.79493433  0.10883264    -0.78700
C31         C  0.66309712  0.77531010  0.11174041     1.01900
O32         O  0.64825999  0.76318788  0.20328014    -0.86000
O33         O  0.67884108  0.79899755  0.23602165    -0.83100
C34         C  0.66470657  0.81213059  0.25629343     0.97500
O35         O  0.64971731  0.82936834  0.24424587    -0.83100
O36         O  0.61753609  0.85370935  0.19355391    -0.85700
C37         C  0.59763389  0.83999428  0.19136086     1.02000
O38         O  0.59997631  0.81672259  0.18251518    -0.78500
O39         O  0.62014880  0.77019330  0.16150484    -0.78700
C40         C  0.62914171  0.75612991  0.18536608     1.01900
Cr41       Cr  0.67480912  0.78783627  0.18680171     1.93700
Cr42       Cr  0.65504846  0.84395747  0.19571677     1.93200
Cr43       Cr  0.62621469  0.80638416  0.14728566     1.39100
O44         O  0.65212896  0.81256592  0.17641600    -1.23700
O45         O  0.34001275  0.79781458  0.35574975    -0.86000
O46         O  0.36636068  0.84139575  0.37232705    -0.83000
C47         C  0.34795948  0.85655809  0.36667434     0.97500
O48         O  0.33011483  0.85880384  0.38941822    -0.83100
O49         O  0.29670251  0.84352422  0.44570421    -0.85700
C50         C  0.28001531  0.82676316  0.43836233     1.02000
O51         O  0.28619791  0.80813811  0.41828159    -0.78500
O52         O  0.31846308  0.76977949  0.38616058    -0.78700
C53         C  0.32900963  0.77641301  0.35765709     1.01900
O54         O  0.36920100  0.76965296  0.40521900    -0.86000
O55         O  0.39007203  0.81437696  0.42892951    -0.83100
C56         C  0.39215874  0.83712340  0.43999365     0.97500
O57         O  0.37291418  0.85218780  0.43845935    -0.83100
O58         O  0.34190314  0.82901162  0.98943017    -0.85700
C59         C  0.32639129  0.81226376  0.00105222     1.02000
O60         O  0.31128490  0.80024121  0.48148441    -0.78500
O61         O  0.34417082  0.76487731  0.45106158    -0.78700
C62         C  0.36252323  0.75713688  0.43186445     1.01900
Cr63       Cr  0.36434338  0.80633836  0.39284896     1.93700
Cr64       Cr  0.33488024  0.84456840  0.43861669     1.93200
Cr65       Cr  0.31656502  0.78787365  0.43296776     1.39100
O66         O  0.33852141  0.81277067  0.42194873    -1.23700
O67         O  0.15234664  0.79355060  0.14314486    -0.86000
O68         O  0.12616227  0.83760324  0.12961299    -0.83000
C69         C  0.14148705  0.85618106  0.12520210     0.97500
O70         O  0.15518460  0.85767975  0.09733090    -0.83100
O71         O  0.18167892  0.83774492  0.03618080    -0.85700
C72         C  0.20131415  0.82486957  0.04466275     1.02000
O73         O  0.19926405  0.80723456  0.06730783    -0.78500
O74         O  0.17512368  0.76841027  0.10838525    -0.78700
C75         C  0.16622533  0.77399862  0.13836519     1.01900
O76         O  0.11923406  0.76450933  0.09913050    -0.86000
O77         O  0.09381766  0.80930658  0.08143592    -0.83100
C78         C  0.08981896  0.83203634  0.07169776     0.97500
O79         O  0.10856551  0.84621912  0.06432679    -0.83100
O80         O  0.13378371  0.81904465  0.00939904    -0.85700
C81         C  0.14783387  0.80119818  0.49215066     1.02000
O82         O  0.16738575  0.79346738  0.01166535    -0.78500
O83         O  0.14269605  0.75778073  0.05186484    -0.78700
C84         C  0.12611124  0.75019947  0.07371682     1.01900
Cr85       Cr  0.12467471  0.80176957  0.11031808     1.93700
Cr86       Cr  0.14514400  0.83786893  0.05345206     1.93200
Cr87       Cr  0.16940378  0.78397329  0.06145481     1.39100
O88         O  0.14667451  0.80784940  0.07563049    -1.23700
O89         O  0.31052236  0.72631997  0.12262262    -0.86000
O90         O  0.29780124  0.70713563  0.19240964    -0.83000
C91         C  0.29124392  0.68397865  0.19774849     0.97500
O92         O  0.30465824  0.66576174  0.18491600    -0.83100
O93         O  0.34605928  0.64227591  0.14660279    -0.85700
C94         C  0.34406616  0.64560813  0.11340541     1.02000
O95         O  0.34408767  0.66797171  0.10098244    -0.78500
O96         O  0.34682221  0.71980195  0.09529014    -0.78700
C97         C  0.32578845  0.73155873  0.09761723     1.01900
O98         O  0.35503910  0.74781161  0.15171142    -0.86000
O99         O  0.34537372  0.72728662  0.21347472    -0.83100
C100        C  0.34409876  0.71184533  0.23843463     0.97500
O101        O  0.33947421  0.68825545  0.23314662    -0.83100
O102        O  0.38052126  0.66810782  0.19615588    -0.85700
C103        C  0.39629821  0.66412549  0.17156164     1.02000
O104        O  0.38997287  0.66825113  0.14028537    -0.78500
O105        O  0.38826737  0.72249045  0.14227658    -0.78700
C106        C  0.37888565  0.74486200  0.14718915     1.01900
Cr107      Cr  0.32795817  0.72435860  0.16910594     1.93700
Cr108      Cr  0.34280408  0.66807785  0.18763671     1.93200
Cr109      Cr  0.36557680  0.69446869  0.12267658     1.39100
O110        O  0.34485270  0.69546068  0.15960377    -1.23700
O111        O  0.18264035  0.72854449  0.36739823    -0.86000
O112        O  0.20653317  0.68685021  0.32809148    -0.83000
C113        C  0.20980042  0.67103054  0.30282634     0.97500
O114        O  0.19021401  0.65978878  0.29019155    -0.83100
O115        O  0.15578791  0.64054852  0.34299403    -0.85700
C116        C  0.14045998  0.64230051  0.36907932     1.02000
O117        O  0.12710936  0.66242920  0.37415963    -0.78500
O118        O  0.15817282  0.70211623  0.39523275    -0.78700
C119        C  0.16975935  0.72319425  0.39455162     1.01900
O120        O  0.15653391  0.74187637  0.30594556    -0.86000
O121        O  0.18299997  0.70584453  0.26761036    -0.83100
C122        C  0.16492462  0.70008160  0.24733393     0.97500
O123        O  0.14751706  0.68472125  0.25721180    -0.83100
O124        O  0.11312234  0.66065487  0.30330932    -0.85700
C125        C  0.09632086  0.67763126  0.31068580     1.02000
O126        O  0.10250583  0.69774561  0.32675295    -0.78500
O127        O  0.13074120  0.73674762  0.35119086    -0.78700
C128        C  0.13896474  0.75018651  0.32606689     1.01900
Cr129      Cr  0.18042687  0.71370563  0.31845060     1.93700
Cr130      Cr  0.15198107  0.66337222  0.30057247     1.93200
Cr131      Cr  0.13150203  0.69899766  0.35944647     1.39100
O132        O  0.15465109  0.69196543  0.32640707    -1.23700
O133        O  0.96342616  0.41118199  0.02689963    -0.86000
O134        O  0.91692299  0.38858145  0.01584223    -0.83000
C135        C  0.89874479  0.40461795  0.01238639     0.97500
O136        O  0.89671515  0.41570756  0.48125564    -0.83100
O137        O  0.91493072  0.44461980  0.42124720    -0.85700
C138        C  0.93001316  0.46271999  0.42947202     1.02000
O139        O  0.94783325  0.45820567  0.45132387    -0.78500
O140        O  0.98823756  0.42955833  0.48564282    -0.78700
C141        C  0.98492843  0.42118478  0.02128019     1.01900
O142        O  0.98784856  0.37527702  0.47104699    -0.86000
O143        O  0.94230682  0.35352816  0.45483431    -0.83100
C144        C  0.91936247  0.35059366  0.44605563     0.97500
O145        O  0.90500788  0.36999861  0.44230785    -0.83100
O146        O  0.92921240  0.39721877  0.38781443    -0.85700
C147        C  0.94617193  0.41124666  0.37362603     1.02000
O148        O  0.95704205  0.42878461  0.39082692    -0.78500
O149        O  0.99305526  0.39951845  0.42446036    -0.78700
C150        C  0.00044946  0.38143395  0.44399302     1.01900
Cr151      Cr  0.95174148  0.38234325  0.48610502     1.93700
Cr152      Cr  0.91380922  0.40704631  0.43476849     1.93200
Cr153      Cr  0.96934515  0.42756992  0.43974671     1.39100
O154        O  0.94499747  0.40585536  0.45393980    -1.23700
O155        O  0.98335110  0.60689418  0.23694001    -0.86000
O156        O  0.93139973  0.59885807  0.22704945    -0.83000
C157        C  0.90786139  0.59550547  0.23326166     0.97500
O158        O  0.90002638  0.59414701  0.26512334    -0.83100
O159        O  0.92479236  0.55396540  0.30672023    -0.85700
C160        C  0.94270314  0.54390198  0.32480381     1.02000
O161        O  0.96360285  0.55586169  0.32853646    -0.78500
O162        O  0.99042664  0.57172783  0.26722301    -0.78700
C163        C  0.99610229  0.58653237  0.24205200     1.01900
O164        O  0.97287643  0.64813883  0.28363238    -0.86000
O165        O  0.92039761  0.64267848  0.27011922    -0.83100
C166        C  0.91047259  0.64578950  0.30018977     0.97500
O167        O  0.91195682  0.62852746  0.32305851    -0.83100
O168        O  0.93210808  0.58901902  0.36200376    -0.85700
C169        C  0.95241491  0.59798517  0.37525311     1.02000
O170        O  0.96999993  0.60637085  0.35587614    -0.78500
O171        O  0.00028425  0.61880869  0.30086976    -0.78700
C172        C  0.99489698  0.64192191  0.29474668     1.01900
Cr173      Cr  0.95165040  0.62223360  0.25725166     1.93700
Cr174      Cr  0.91949056  0.59209123  0.31201177     1.93200
Cr175      Cr  0.97858196  0.58876952  0.31152939     1.39100
O176        O  0.94984100  0.60044197  0.29297979    -1.23700
O177        O  0.53549981  0.59864675  0.26397541    -0.86000
O178        O  0.58260911  0.62094015  0.25171980    -0.83000
C179        C  0.60111088  0.60509260  0.24859127     0.97500
O180        O  0.60257518  0.58965254  0.22238176    -0.83100
O181        O  0.58256884  0.56042110  0.16329048    -0.85700
C182        C  0.56703891  0.54288570  0.17259334     1.02000
O183        O  0.54965306  0.54840511  0.19483857    -0.78500
O184        O  0.50984682  0.57834194  0.22807313    -0.78700
C185        C  0.51432227  0.58792468  0.25805708     1.01900
O186        O  0.51172712  0.63156403  0.21490333    -0.86000
O187        O  0.55860047  0.65280148  0.19953513    -0.83100
C188        C  0.58161276  0.65538142  0.19029884     0.97500
O189        O  0.59518899  0.63551595  0.18469849    -0.83100
O190        O  0.56933545  0.60891047  0.13065957    -0.85700
C191        C  0.55218475  0.59501574  0.11668652     1.02000
O192        O  0.54214883  0.57709123  0.13366816    -0.78500
O193        O  0.50772753  0.60805014  0.16716793    -0.78700
C194        C  0.49901863  0.62485514  0.18808425     1.01900
Cr195      Cr  0.54781754  0.62409176  0.22989550     1.93700
Cr196      Cr  0.58511797  0.59847962  0.17684026     1.93200
Cr197      Cr  0.52950658  0.57935265  0.18262470     1.39100
O198        O  0.55423716  0.60037674  0.19719880    -1.23700
O199        O  0.51069363  0.39691367  0.48741210    -0.86000
O200        O  0.56310257  0.40523125  0.48196032    -0.83000
C201        C  0.58640011  0.40750087  0.49025403     0.97500
O202        O  0.59592947  0.40542433  0.02121465    -0.83100
O203        O  0.56994839  0.44560718  0.05894762    -0.85700
C204        C  0.55136238  0.45728848  0.07382415     1.02000
O205        O  0.52950981  0.44663933  0.07521536    -0.78500
O206        O  0.50525070  0.42796670  0.01201647    -0.78700
C207        C  0.49735557  0.41689091  0.49265675     1.01900
O208        O  0.52338385  0.35259819  0.03174637    -0.86000
O209        O  0.57609928  0.35854680  0.02221955    -0.83100
C210        C  0.58352640  0.35428698  0.05310579     0.97500
O211        O  0.57987714  0.37091449  0.07698136    -0.83100
O212        O  0.55827822  0.41187625  0.11431707    -0.85700
C213        C  0.53682015  0.40393657  0.12519242     1.02000
O214        O  0.51971889  0.39728049  0.10399826    -0.78500
O215        O  0.49453166  0.38180477  0.04672087    -0.78700
C216        C  0.50093224  0.35862205  0.04178654     1.01900
Cr217      Cr  0.54541228  0.37840604  0.00722362     1.93700
Cr218      Cr  0.57382604  0.40783647  0.06572072     1.93200
Cr219      Cr  0.51490057  0.41290746  0.05810840     1.39100
O220        O  0.54469814  0.40025540  0.04332371    -1.23700
O221        O  0.82402072  0.24038358  0.39520363    -0.86000
O222        O  0.79241003  0.20330635  0.43171223    -0.83000
C223        C  0.78724188  0.18520054  0.45280324     0.97500
O224        O  0.80481595  0.16962113  0.46140401    -0.83100
O225        O  0.83291934  0.14871153  0.40331401    -0.85700
C226        C  0.84886848  0.14879077  0.37794265     1.02000
O227        O  0.86602344  0.16590861  0.37592960    -0.78500
O228        O  0.84381035  0.21261856  0.36118665    -0.78700
C229        C  0.83318214  0.23420996  0.36534097     1.01900
O230        O  0.85380705  0.24417095  0.45670037    -0.86000
O231        O  0.82212261  0.21152524  0.49157431    -0.83100
C232        C  0.83982674  0.20469409  0.00561270     0.97500
O233        O  0.85477681  0.18823718  0.99157894    -0.83100
O234        O  0.87861969  0.15515944  0.44254387    -0.85700
C235        C  0.89862345  0.16852493  0.43925451     1.02000
O236        O  0.89685006  0.19124305  0.42852391    -0.78500
O237        O  0.87709707  0.23768669  0.40928846    -0.78700
C238        C  0.87144693  0.25106069  0.43611731     1.01900
Cr239      Cr  0.82450128  0.22258306  0.44210656     1.93700
Cr240      Cr  0.84205176  0.16606558  0.44891582     1.93200
Cr241      Cr  0.86896994  0.20135220  0.39632618     1.39100
O242        O  0.84486485  0.19666127  0.42863756    -1.23700
O243        O  0.67500397  0.23953174  0.11557184    -0.86000
O244        O  0.70339527  0.20017909  0.07858440    -0.83000
C245        C  0.70747740  0.18208463  0.05664937     0.97500
O246        O  0.68921554  0.16741987  0.04799176    -0.83100
O247        O  0.66041904  0.14900926  0.10697890    -0.85700
C248        C  0.64510211  0.15055333  0.13310729     1.02000
O249        O  0.62843597  0.16833686  0.13498631    -0.78500
O250        O  0.65426044  0.21292756  0.14935420    -0.78700
C251        C  0.66526812  0.23415574  0.14508887     1.01900
O252        O  0.64481397  0.24554529  0.05536823    -0.86000
O253        O  0.67411803  0.21058108  0.01902686    -0.83100
C254        C  0.65411294  0.20046709  0.49684773     0.97500
O255        O  0.64252651  0.18288358  0.01519586    -0.83100
O256        O  0.61474941  0.15888860  0.06850628    -0.85700
C257        C  0.59575338  0.17399384  0.07063920     1.02000
O258        O  0.59859290  0.19611786  0.08355424    -0.78500
O259        O  0.62196678  0.24081165  0.10331923    -0.78700
C260        C  0.62805706  0.25385772  0.07674376     1.01900
Cr261      Cr  0.67286090  0.22180062  0.06872840     1.93700
Cr262      Cr  0.65185814  0.16672437  0.06146163     1.93200
Cr263      Cr  0.62765030  0.20388828  0.11520668     1.39100
O264        O  0.65101620  0.19748051  0.08214853    -1.23700
O265        O  0.03095840  0.09058830  0.02300191    -0.86000
O266        O  0.07833777  0.11149772  0.01245416    -0.83000
C267        C  0.09509102  0.09389840  0.01000911     0.97500
O268        O  0.09966766  0.07878796  0.48001613    -0.83100
O269        O  0.07826451  0.05224788  0.42029969    -0.85700
C270        C  0.06347565  0.03428744  0.42971163     1.02000
O271        O  0.04609717  0.03906300  0.45240308    -0.78500
O272        O  0.00773560  0.06874554  0.49056335    -0.78700
C273        C  0.00881788  0.08208731  0.01731729     1.01900
O274        O  0.01079113  0.12440850  0.47809158    -0.86000
O275        O  0.05754341  0.14408880  0.46168922    -0.83100
C276        C  0.08029928  0.14576082  0.45100139     0.97500
O277        O  0.09289330  0.12551106  0.44461275    -0.83100
O278        O  0.06451359  0.10119705  0.39096509    -0.85700
C279        C  0.04642448  0.08822189  0.37742625     1.02000
O280        O  0.03635377  0.07004713  0.39401631    -0.78500
O281        O  0.00265350  0.09975930  0.43205922    -0.78700
C282        C  0.99671233  0.11806267  0.45256757     1.01900
Cr283      Cr  0.04649114  0.11495668  0.49131712     1.93700
Cr284      Cr  0.08144818  0.08937520  0.43570925     1.93200
Cr285      Cr  0.02563769  0.07081308  0.44393170     1.39100
O286        O  0.05114500  0.09151014  0.45759083    -1.23700
O287        O  0.02024233  0.88722011  0.23405843    -0.86000
O288        O  0.07261050  0.89518751  0.23268235    -0.83000
C289        C  0.09554059  0.89793688  0.24260478     0.97500
O290        O  0.10076397  0.89800539  0.27559416    -0.83100
O291        O  0.07358083  0.93837843  0.31381640    -0.85700
C292        C  0.05437078  0.94927228  0.32848936     1.02000
O293        O  0.03283586  0.93800467  0.32838994    -0.78500
O294        O  0.01092731  0.92253288  0.26347955    -0.78700
C295        C  0.00674239  0.90732535  0.23795798     1.01900
O296        O  0.02667483  0.84592257  0.28196099    -0.86000
O297        O  0.07970238  0.85119001  0.27485057    -0.83100
C298        C  0.08700962  0.84699541  0.30585530     0.97500
O299        O  0.08254867  0.86326076  0.32995696    -0.83100
O300        O  0.05878615  0.90457092  0.36729153    -0.85700
C301        C  0.03609960  0.89751786  0.37438786     1.02000
O302        O  0.02399101  0.88576357  0.35130008    -0.78500
O303        O  0.99765127  0.87540708  0.29326860    -0.78700
C304        C  0.00389476  0.85215330  0.29024805     1.01900
Cr305      Cr  0.04987102  0.87163089  0.25842072     1.93700
Cr306      Cr  0.07702492  0.90026488  0.31938894     1.93200
Cr307      Cr  0.01871853  0.90504144  0.30827176     1.39100
O308        O  0.04877572  0.89327470  0.29436804    -1.23700
O309        O  0.17694399  0.25579156  0.39402370    -0.86000
O310        O  0.20566182  0.29632157  0.42871168    -0.83000
C311        C  0.21014330  0.31400052  0.45112600     0.97500
O312        O  0.19185344  0.32892438  0.46010046    -0.83100
O313        O  0.16330816  0.34844737  0.40063759    -0.85700
C314        C  0.14879115  0.34637296  0.37373474     1.02000
O315        O  0.13299172  0.32805050  0.37092333    -0.78500
O316        O  0.15636395  0.28197669  0.35967655    -0.78700
C317        C  0.16709845  0.26067431  0.36456422     1.01900
O318        O  0.14695350  0.25195398  0.45446211    -0.86000
O319        O  0.17646892  0.28751250  0.48879144    -0.83100
C320        C  0.16090450  0.29720997  0.00445046     0.97500
O321        O  0.14729858  0.31530972  0.99198845    -0.83100
O322        O  0.11770628  0.34066943  0.43846089    -0.85700
C323        C  0.09782224  0.32773220  0.43205986     1.02000
O324        O  0.10011006  0.30466990  0.42225956    -0.78500
O325        O  0.12218756  0.25776943  0.40835451    -0.78700
C326        C  0.12857472  0.24500551  0.43511981     1.01900
Cr327      Cr  0.17497322  0.27516739  0.43976288     1.93700
Cr328      Cr  0.15436112  0.33075041  0.44634403     1.93200
Cr329      Cr  0.12988002  0.29360137  0.39300585     1.39100
O330        O  0.15316298  0.29983232  0.42589556    -1.23700
O331        O  0.31920310  0.26499559  0.12629381    -0.86000
O332        O  0.30287576  0.28263635  0.05749644    -0.83000
C333        C  0.29488149  0.30531975  0.05101412     0.97500
O334        O  0.30785628  0.32466015  0.06143716    -0.83100
O335        O  0.35048313  0.35088192  0.09467673    -0.85700
C336        C  0.34909342  0.34886094  0.12828501     1.02000
O337        O  0.34914242  0.32693100  0.14204889    -0.78500
O338        O  0.35564820  0.27530199  0.15039604    -0.78700
C339        C  0.33542296  0.26241993  0.15088472     1.01900
O340        O  0.36426392  0.24584427  0.09514585    -0.86000
O341        O  0.35191189  0.26483464  0.03288894    -0.83100
C342        C  0.33840290  0.27571012  0.51219001     0.97500
O343        O  0.33982094  0.30158271  0.01206032    -0.83100
O344        O  0.38376155  0.32194019  0.04373896    -0.85700
C345        C  0.40056711  0.32543144  0.06707888     1.02000
O346        O  0.39335769  0.32698989  0.09853015    -0.78500
O347        O  0.39545403  0.27388183  0.10087921    -0.78700
C348        C  0.38783756  0.25098102  0.09680665     1.01900
Cr349      Cr  0.33508687  0.26716837  0.07853535     1.93700
Cr350      Cr  0.34605230  0.32326944  0.05556411     1.93200
Cr351      Cr  0.37163099  0.30074102  0.12060369     1.39100
O352        O  0.34986116  0.29725468  0.08558442    -1.23700
O353        O  0.01845347  0.56882152  0.01505438    -0.86000
O354        O  0.05729387  0.53823417  0.04903728    -0.83000
C355        C  0.07571917  0.53315527  0.06953917     0.97500
O356        O  0.09203442  0.55045257  0.07589543    -0.83100
O357        O  0.10715893  0.58151985  0.01617375    -0.85700
C358        C  0.10116192  0.59689185  0.48897142     1.02000
O359        O  0.08476973  0.61475240  0.49178319    -0.78500
O360        O  0.03885274  0.59052565  0.48054135    -0.78700
C361        C  0.01806362  0.57892897  0.48603167     1.01900
O362        O  0.01233143  0.59618910  0.07864998    -0.86000
O363        O  0.04880483  0.56663326  0.11060146    -0.83100
C364        C  0.06316491  0.58083405  0.12889889     0.97500
O365        O  0.08041689  0.59478931  0.11487598    -0.83100
O366        O  0.10246989  0.62599579  0.06175799    -0.85700
C367        C  0.08796945  0.64562995  0.06246370     1.02000
O368        O  0.06450439  0.64308045  0.05600734    -0.78500
O369        O  0.01856304  0.62319068  0.03552450    -0.78700
C370        C  0.00506399  0.61496713  0.06040399     1.01900
Cr371      Cr  0.03656312  0.56910270  0.06175877     1.93700
Cr372      Cr  0.09315054  0.58828504  0.06548563     1.93200
Cr373      Cr  0.05440066  0.61705975  0.02059773     1.39100
O374        O  0.06114939  0.59124171  0.04925737    -1.23700
O375        O  0.01562911  0.42443274  0.23628544    -0.86000
O376        O  0.05617244  0.45143653  0.20021167    -0.83000
C377        C  0.07471958  0.45448581  0.17888031     0.97500
O378        O  0.08903611  0.43545351  0.17161516    -0.83100
O379        O  0.10609012  0.40632440  0.23161421    -0.85700
C380        C  0.10386586  0.39092475  0.25738285     1.02000
O381        O  0.08495413  0.37572245  0.25932728    -0.78500
O382        O  0.03953407  0.40139838  0.27139799    -0.78700
C383        C  0.01948235  0.41431679  0.26590640     1.01900
O384        O  0.00956329  0.39403236  0.17599602    -0.86000
O385        O  0.04624080  0.42121129  0.14130074    -0.83100
C386        C  0.05722883  0.40357853  0.12412716     0.97500
O387        O  0.07359419  0.38889163  0.13842735    -0.83100
O388        O  0.09666289  0.36105042  0.19269096    -0.85700
C389        C  0.08192170  0.34207103  0.19571364     1.02000
O390        O  0.05921562  0.34554474  0.20600468    -0.78500
O391        O  0.01381651  0.36938555  0.22228262    -0.78700
C392        C  0.00117093  0.37665502  0.19585979     1.01900
Cr393      Cr  0.03412827  0.42107880  0.19029554     1.93700
Cr394      Cr  0.08889815  0.39819902  0.18537238     1.93200
Cr395      Cr  0.05012499  0.37500298  0.23706564     1.39100
O396        O  0.05768683  0.39837387  0.20476738    -1.23700
O397        O  0.97840111  0.92927724  0.02272436    -0.86000
O398        O  0.93753624  0.95720550  0.05597452    -0.83000
C399        C  0.91853303  0.96140887  0.07620875     0.97500
O400        O  0.90324597  0.94315890  0.08279723    -0.83100
O401        O  0.88807525  0.91316612  0.02212375    -0.85700
C402        C  0.89144180  0.89739094  0.99666289     1.02000
O403        O  0.90547709  0.88322036  0.49412168    -0.78500
O404        O  0.94937284  0.91079601  0.48418561    -0.78700
C405        C  0.97014067  0.92240468  0.48977115     1.01900
O406        O  0.98204614  0.89891003  0.08430752    -0.86000
O407        O  0.94492496  0.92857942  0.11640073    -0.83100
C408        C  0.93292691  0.91168018  0.13306904     0.97500
O409        O  0.91683435  0.89712596  0.11779983    -0.83100
O410        O  0.89600908  0.86765413  0.06229125    -0.85700
C411        C  0.91123101  0.84866265  0.05949056     1.02000
O412        O  0.93437976  0.85239487  0.05166374    -0.78500
O413        O  0.97955420  0.87611543  0.03571143    -0.78700
C414        C  0.99081552  0.88161154  0.06405409     1.01900
Cr415      Cr  0.95876707  0.92683025  0.06817655     1.93700
Cr416      Cr  0.90332006  0.90543321  0.06976434     1.93200
Cr417      Cr  0.94345363  0.88132002  0.02059866     1.39100
O418        O  0.93517845  0.90473902  0.05265435    -1.23700
O419        O  0.97752029  0.07732451  0.23834002    -0.86000
O420        O  0.93836588  0.04752384  0.20370952    -0.83000
C421        C  0.92028912  0.04289803  0.18233859     0.97500
O422        O  0.90535979  0.06099218  0.17360773    -0.83100
O423        O  0.88690907  0.09020203  0.23256978    -0.85700
C424        C  0.88868104  0.10573459  0.25849348     1.02000
O425        O  0.90607592  0.12272153  0.25951415    -0.78500
O426        O  0.95292758  0.10062187  0.27298927    -0.78700
C427        C  0.97320594  0.08777350  0.26794202     1.01900
O428        O  0.98251601  0.10585725  0.17691211    -0.86000
O429        O  0.94718789  0.07609735  0.14324053    -0.83100
C430        C  0.93626529  0.09326505  0.12568635     0.97500
O431        O  0.91907520  0.10761758  0.13940921    -0.83100
O432        O  0.89350011  0.13560067  0.19319973    -0.85700
C433        C  0.90745342  0.15527887  0.19567943     1.02000
O434        O  0.93043978  0.15279946  0.20484953    -0.78500
O435        O  0.97682508  0.13190399  0.22220262    -0.78700
C436        C  0.99005416  0.12399349  0.19639962     1.01900
Cr437      Cr  0.95914937  0.07831978  0.19225539     1.93700
Cr438      Cr  0.90357622  0.09856943  0.18634527     1.93200
Cr439      Cr  0.94085568  0.12501372  0.23722449     1.39100
O440        O  0.93459062  0.10034119  0.20589612    -1.23700
O441        O  0.84935630  0.70192044  0.13809559    -0.86000
O442        O  0.87428186  0.65782278  0.11944877    -0.83000
C443        C  0.85876361  0.63922486  0.11748007     0.97500
O444        O  0.84219261  0.63803630  0.09278448    -0.83100
O445        O  0.80990283  0.65843931  0.03654270    -0.85700
C446        C  0.79188916  0.67291577  0.04775715     1.02000
O447        O  0.79701259  0.68965351  0.07116252    -0.78500
O448        O  0.82598820  0.72852229  0.10762084    -0.78700
C449        C  0.83713079  0.72267862  0.13593610     1.01900
O450        O  0.87906373  0.73078237  0.08954331    -0.86000
O451        O  0.90144851  0.68596444  0.06653757    -0.83100
C452        C  0.90505929  0.66293523  0.05777818     0.97500
O453        O  0.88580857  0.64885191  0.05179448    -0.83100
O454        O  0.85536383  0.67518320  0.00122331    -0.85700
C455        C  0.83896988  0.69301439  0.49224527     1.02000
O456        O  0.82355101  0.70247740  0.00979186    -0.78500
O457        O  0.85308546  0.73724539  0.04522575    -0.78700
C458        C  0.87095209  0.74486655  0.06498932     1.01900
Cr459      Cr  0.87402403  0.69358259  0.10076706     1.93700
Cr460      Cr  0.84818302  0.65739588  0.04733022     1.93200
Cr461      Cr  0.82651636  0.71221056  0.05977088     1.39100
O462        O  0.84938087  0.68770832  0.06970963    -1.23700
O463        O  0.64141217  0.72912292  0.35816668    -0.86000
O464        O  0.64808358  0.67578851  0.35349091    -0.83000
C465        C  0.64888732  0.65237375  0.36225144     0.97500
O466        O  0.64840181  0.64649354  0.39489540    -0.83100
O467        O  0.68846025  0.66976159  0.43687306    -0.85700
C468        C  0.70023633  0.68786638  0.45260208     1.02000
O469        O  0.69043385  0.71029766  0.45297033    -0.78500
O470        O  0.67693536  0.73416271  0.38804516    -0.78700
C471        C  0.66225756  0.74080340  0.36324535     1.01900
O472        O  0.59954775  0.72207604  0.40447808    -0.86000
O473        O  0.60271328  0.66948700  0.39308748    -0.83100
C474        C  0.59646896  0.66298154  0.42372013     0.97500
O475        O  0.61231504  0.66514463  0.44854938    -0.83100
O476        O  0.65736484  0.68250096  0.99072772    -0.85700
C477        C  0.65223536  0.70528915  0.00049508     1.02000
O478        O  0.64025548  0.72367956  0.47712539    -0.78500
O479        O  0.62973875  0.74946978  0.41888990    -0.78700
C480        C  0.60633958  0.74405040  0.41529204     1.01900
Cr481      Cr  0.62476560  0.69893906  0.37997474     1.93700
Cr482      Cr  0.65002316  0.66849305  0.44002923     1.93200
Cr483      Cr  0.65876504  0.72688741  0.43283705     1.39100
O484        O  0.64524463  0.69793394  0.41714541    -1.23700
O485        O  0.44418866  0.89570562  0.26569217    -0.86000
O486        O  0.40487930  0.86929959  0.23480462    -0.83000
C487        C  0.38714934  0.88600733  0.23561259     0.97500
O488        O  0.38630532  0.90352017  0.21243016    -0.83100
O489        O  0.40602220  0.94082996  0.16597911    -0.85700
C490        C  0.41669271  0.95904666  0.18241159     1.02000
O491        O  0.43178567  0.95360796  0.20749698    -0.78500
O492        O  0.46972971  0.92480003  0.24452538    -0.78700
C493        C  0.46326814  0.91019119  0.26907274     1.01900
O494        O  0.47999576  0.87325964  0.21764966    -0.86000
O495        O  0.44119268  0.84946844  0.18344372    -0.83100
C496        C  0.42067509  0.84580096  0.16708472     0.97500
O497        O  0.40477530  0.86415874  0.16429879    -0.83100
O498        O  0.43153072  0.90263355  0.12509330    -0.85700
C499        C  0.44814899  0.92042862  0.12135079     1.02000
O500        O  0.45329357  0.93536403  0.14620879    -0.78500
O501        O  0.48848383  0.90501142  0.18146784    -0.78700
C502        C  0.49524274  0.88474251  0.19733478     1.01900
Cr503      Cr  0.44203042  0.87422967  0.22313258     1.93700
Cr504      Cr  0.40900581  0.90253394  0.16907289     1.93200
Cr505      Cr  0.45879178  0.92762749  0.19542351     1.39100
O506        O  0.43682182  0.90145626  0.19592567    -1.23700
O507        O  0.46811169  0.10212133  0.47860756    -0.86000
O508        O  0.41631709  0.10097519  0.48374885    -0.83000
C509        C  0.39796016  0.09956108  0.00074154     0.97500
O510        O  0.39402983  0.10018493  0.03404568    -0.83100
O511        O  0.41516808  0.05680089  0.07042981    -0.85700
C512        C  0.43255880  0.04266468  0.08346587     1.02000
O513        O  0.45593616  0.04852321  0.07904931    -0.78500
O514        O  0.47649782  0.06202959  0.01023268    -0.78700
C515        C  0.47941717  0.08065103  0.47954180     1.01900
O516        O  0.47567118  0.13930192  0.03739817    -0.86000
O517        O  0.42281109  0.14461432  0.03367071    -0.83100
C518        C  0.42033742  0.14999141  0.06582065     0.97500
O519        O  0.42040429  0.13205850  0.08771332    -0.83100
O520        O  0.43730968  0.08993761  0.12140489    -0.85700
C521        C  0.46064148  0.09462827  0.12757839     1.02000
O522        O  0.47705490  0.09483328  0.10340821    -0.78500
O523        O  0.49953751  0.10476753  0.04256314    -0.78700
C524        C  0.49738515  0.12891929  0.04211452     1.01900
Cr525      Cr  0.44765878  0.11920002  0.01391417     1.93700
Cr526      Cr  0.41856575  0.09485807  0.07568684     1.93200
Cr527      Cr  0.47454429  0.07842530  0.05779321     1.39100
O528        O  0.44656462  0.09668782  0.04859727    -1.23700
O529        O  0.33780162  0.20015178  0.39274114    -0.86000
O530        O  0.36479378  0.15618908  0.38225241    -0.83000
C531        C  0.34831925  0.13847869  0.38041183     0.97500
O532        O  0.33430702  0.13592446  0.35327144    -0.83100
O533        O  0.30788554  0.15275431  0.29115613    -0.85700
C534        C  0.28922838  0.16773610  0.29790407     1.02000
O535        O  0.29238153  0.18618124  0.31935486    -0.78500
O536        O  0.31748547  0.22586335  0.35684889    -0.78700
C537        C  0.32360495  0.21936358  0.38754172     1.01900
O538        O  0.37218185  0.22785913  0.34834850    -0.86000
O539        O  0.39720918  0.18171645  0.33257424    -0.83100
C540        C  0.40112784  0.15849014  0.32406051     0.97500
O541        O  0.38206787  0.14408624  0.31786973    -0.83100
O542        O  0.35554611  0.16695743  0.26105228    -0.85700
C543        C  0.34147564  0.18343580  0.24577668     1.02000
O544        O  0.32394095  0.19533109  0.26192280    -0.78500
O545        O  0.35060480  0.23278129  0.29934319    -0.78700
C546        C  0.36650585  0.24112531  0.32172314     1.01900
Cr547      Cr  0.36624746  0.19095785  0.36093941     1.93700
Cr548      Cr  0.34479700  0.15228585  0.30747282     1.93200
Cr549      Cr  0.32286539  0.20788473  0.31090851     1.39100
O550        O  0.34463022  0.18383271  0.32643331    -1.23700
O551        O  0.15154840  0.20047523  0.10622374    -0.86000
O552        O  0.12618619  0.15573659  0.12195046    -0.83000
C553        C  0.14158088  0.13695072  0.12452455     0.97500
O554        O  0.15728227  0.13557393  0.14998044    -0.83100
O555        O  0.18824242  0.15544609  0.20562498    -0.85700
C556        C  0.20654516  0.16963157  0.19554504     1.02000
O557        O  0.20199133  0.18783586  0.17433255    -0.78500
O558        O  0.17249481  0.22719342  0.13981473    -0.78700
C559        C  0.16303747  0.22150384  0.11020464     1.01900
O560        O  0.12011109  0.22815597  0.15474772    -0.86000
O561        O  0.09726872  0.18375776  0.17432360    -0.83100
C562        C  0.09377991  0.16141999  0.18561236     0.97500
O563        O  0.11285973  0.14685074  0.19064978    -0.83100
O564        O  0.14275866  0.17191134  0.24193480    -0.85700
C565        C  0.15808125  0.18838131  0.25471947     1.02000
O566        O  0.17486421  0.19867030  0.23582010    -0.78500
O567        O  0.14378048  0.23332080  0.20203935    -0.78700
C568        C  0.12630622  0.24094949  0.18169013     1.01900
Cr569      Cr  0.12577082  0.19136039  0.14189970     1.93700
Cr570      Cr  0.15038554  0.15473777  0.19531557     1.93200
Cr571      Cr  0.17167503  0.20958659  0.18646259     1.39100
O572        O  0.14952195  0.18512326  0.17406698    -1.23700
O573        O  0.52572400  0.94197512  0.48688042    -0.86000
O574        O  0.54268567  0.94399993  0.41648118    -0.83000
C575        C  0.56615410  0.94919690  0.41265734     0.97500
O576        O  0.58287944  0.93510257  0.42743670    -0.83100
O577        O  0.60112285  0.89284684  0.47075513    -0.85700
C578        C  0.59588342  0.89796528  0.00623921     1.02000
O579        O  0.57323615  0.90003478  0.01762296    -0.78500
O580        O  0.52140910  0.90571057  0.01832858    -0.78700
C581        C  0.51450161  0.92841212  0.01069836     1.01900
O582        O  0.49525803  0.89957017  0.46881597    -0.86000
O583        O  0.51660764  0.89734967  0.40536681    -0.83100
C584        C  0.53197538  0.89513014  0.38019627     0.97500
O585        O  0.55580668  0.89917761  0.38411318    -0.83100
O586        O  0.57146437  0.85931117  0.42405229    -0.85700
C587        C  0.57024614  0.84341027  0.44872429     1.02000
O588        O  0.56620276  0.85116695  0.47970779    -0.78500
O589        O  0.51434734  0.86294386  0.47675374    -0.78700
C590        C  0.49394134  0.87555315  0.47145354     1.01900
Cr591      Cr  0.52250156  0.91955322  0.44526306     1.93700
Cr592      Cr  0.57607968  0.89695489  0.42928323     1.93200
Cr593      Cr  0.54546321  0.88129243  0.49556973     1.39100
O594        O  0.54868608  0.89994722  0.45722767    -1.23700
O595        O  0.52083428  0.07437008  0.27004894    -0.86000
O596        O  0.56156722  0.04375025  0.29818840    -0.83000
C597        C  0.57904308  0.03681006  0.31920883     0.97500
O598        O  0.59356602  0.05391096  0.33198058    -0.83100
O599        O  0.61049603  0.08836101  0.27825356    -0.85700
C600        C  0.60842765  0.10618184  0.25566843     1.02000
O601        O  0.59120202  0.12327652  0.25897951    -0.78500
O602        O  0.54776463  0.09819097  0.24127409    -0.78700
C603        C  0.52686208  0.08646124  0.24265729     1.01900
O604        O  0.51334270  0.09736782  0.33578835    -0.86000
O605        O  0.55096093  0.06519638  0.36429399    -0.83100
C606        C  0.56148985  0.08081075  0.38504636     0.97500
O607        O  0.57848217  0.09643389  0.37428409    -0.83100
O608        O  0.60188613  0.13041719  0.32579007    -0.85700
C609        C  0.58695673  0.14970511  0.32525967     1.02000
O610        O  0.56385802  0.14682028  0.31707874    -0.78500
O611        O  0.51907171  0.12567140  0.29392760    -0.78700
C612        C  0.50547180  0.11662578  0.31847693     1.01900
Cr613      Cr  0.53877822  0.07176073  0.31613415     1.93700
Cr614      Cr  0.59395171  0.09240667  0.32613067     1.93200
Cr615      Cr  0.55598874  0.12149664  0.28001962     1.39100
O616        O  0.56271373  0.09528514  0.30759770    -1.23700
O617        O  0.83634279  0.29929177  0.10909937    -0.86000
O618        O  0.86436762  0.34222591  0.12282263    -0.83000
C619        C  0.85009104  0.36180717  0.12688190     0.97500
O620        O  0.83529893  0.36392691  0.15366324    -0.83100
O621        O  0.80483273  0.34459296  0.21158528    -0.85700
C622        C  0.78573091  0.33133338  0.20165109     1.02000
O623        O  0.78909620  0.31365165  0.17882959    -0.78500
O624        O  0.81534972  0.27244237  0.14154589    -0.78700
C625        C  0.82566544  0.27791418  0.11247751     1.01900
O626        O  0.86877918  0.26950253  0.15426440    -0.86000
O627        O  0.89418241  0.31318547  0.17214988    -0.83100
C628        C  0.89862849  0.33539111  0.18371691     0.97500
O629        O  0.88015410  0.35045251  0.19071326    -0.83100
O630        O  0.85132893  0.32520677  0.24307072    -0.85700
C631        C  0.83618591  0.30861752  0.25591585     1.02000
O632        O  0.81727058  0.30089322  0.23856284    -0.78500
O633        O  0.84482808  0.26456574  0.20150249    -0.78700
C634        C  0.86194536  0.25640542  0.18055601     1.01900
Cr635      Cr  0.86406763  0.30663326  0.14214108     1.93700
Cr636      Cr  0.84255660  0.34384138  0.19811899     1.93200
Cr637      Cr  0.81823309  0.29010377  0.18856675     1.39100
O638        O  0.84151020  0.31359218  0.17589329    -1.23700
O639        O  0.65240579  0.29562074  0.39836466    -0.86000
O640        O  0.62498670  0.33975593  0.38595937    -0.83000
C641        C  0.63910494  0.35922450  0.38143720     0.97500
O642        O  0.65367618  0.36092324  0.35458150    -0.83100
O643        O  0.68251955  0.34167631  0.29511147    -0.85700
C644        C  0.70177258  0.32806618  0.30358916     1.02000
O645        O  0.69890062  0.31012871  0.32568640    -0.78500
O646        O  0.67349411  0.26965277  0.36334290    -0.78700
C647        C  0.66373512  0.27453399  0.39309273     1.01900
O648        O  0.61962312  0.26726952  0.35337094    -0.86000
O649        O  0.59423889  0.31125267  0.33667911    -0.83100
C650        C  0.58971658  0.33365932  0.32634998     0.97500
O651        O  0.60794167  0.34873365  0.31959633    -0.83100
O652        O  0.63538142  0.32393499  0.26485015    -0.85700
C653        C  0.65036081  0.30751526  0.25075665     1.02000
O654        O  0.66867745  0.29799957  0.26766580    -0.78500
O655        O  0.64214573  0.26179579  0.30507788    -0.78700
C656        C  0.62610353  0.25355653  0.32723920     1.01900
Cr657      Cr  0.62458694  0.30415613  0.36589409     1.93700
Cr658      Cr  0.64521222  0.34144351  0.31022833     1.93200
Cr659      Cr  0.66919135  0.28717293  0.31708732     1.39100
O660        O  0.64652948  0.31097461  0.33152063    -1.23700
O661        O  0.47984228  0.57802898  0.47959551    -0.86000
O662        O  0.44070337  0.54839922  0.44388506    -0.83000
C663        C  0.42295600  0.54396932  0.42191072     0.97500
O664        O  0.40859151  0.56232518  0.41248267    -0.83100
O665        O  0.38908674  0.59108623  0.47120991    -0.85700
C666        C  0.39065899  0.60613642  0.49775303     1.02000
O667        O  0.40825376  0.62089473  0.00393885    -0.78500
O668        O  0.45532383  0.59986423  0.01793394    -0.78700
C669        C  0.47662358  0.58895589  0.01275517     1.01900
O670        O  0.48482042  0.60698863  0.41843698    -0.86000
O671        O  0.45065003  0.57722646  0.38354424    -0.83100
C672        C  0.44019988  0.59453475  0.36562714     0.97500
O673        O  0.42306456  0.60912131  0.37914120    -0.83100
O674        O  0.39624924  0.63645945  0.43301729    -0.85700
C675        C  0.40946962  0.65633269  0.43808475     1.02000
O676        O  0.43263940  0.65394985  0.44661577    -0.78500
O677        O  0.47947634  0.63242646  0.46400256    -0.78700
C678        C  0.49305433  0.62442193  0.43847418     1.01900
Cr679      Cr  0.46173403  0.57923101  0.43311206     1.93700
Cr680      Cr  0.40660409  0.59973489  0.42558366     1.93200
Cr681      Cr  0.44309402  0.62567066  0.47823064     1.39100
O682        O  0.43714774  0.60127951  0.44630439    -1.23700
O683        O  0.47770046  0.42137531  0.27260519    -0.86000
O684        O  0.43799359  0.45279258  0.30176882    -0.83000
C685        C  0.41914764  0.45913427  0.32114217     0.97500
O686        O  0.40272497  0.44227423  0.32935107    -0.83100
O687        O  0.38668465  0.41054736  0.27178188    -0.85700
C688        C  0.38960551  0.39424935  0.24697797     1.02000
O689        O  0.40607206  0.37643300  0.24946812    -0.78500
O690        O  0.45176120  0.40009122  0.23806943    -0.78700
C691        C  0.47258358  0.41165394  0.24296473     1.01900
O692        O  0.47929470  0.39423448  0.33637868    -0.86000
O693        O  0.44362449  0.42711543  0.36527572    -0.83100
C694        C  0.42915873  0.41342382  0.38379255     0.97500
O695        O  0.41298256  0.39822276  0.36977941    -0.83100
O696        O  0.39160942  0.36591161  0.31620832    -0.85700
C697        C  0.40580658  0.34596731  0.31431768     1.02000
O698        O  0.42910858  0.34841403  0.30636495    -0.78500
O699        O  0.47559459  0.36933458  0.28998341    -0.78700
C700        C  0.48772407  0.37616816  0.31712873     1.01900
Cr701      Cr  0.45745398  0.42226507  0.31748915     1.93700
Cr702      Cr  0.40084543  0.40397021  0.32024073     1.93200
Cr703      Cr  0.43996431  0.37558744  0.27353053     1.39100
O704        O  0.43281285  0.40065657  0.30381598    -1.23700
C705        C  0.39879185  0.51365687  0.38301899    -0.27000
C706        C  0.42212149  0.52004632  0.39959892    -0.15000
C707        C  0.44478632  0.50748222  0.38743168     0.35600
C708        C  0.44354147  0.48932819  0.35978264    -0.26400
C709        C  0.42015813  0.48286147  0.34357654    -0.15700
C710        C  0.39763338  0.49524261  0.35558829     0.36700
N711        N  0.37349221  0.48939807  0.33960907    -0.89900
H712        H  0.38127813  0.52351475  0.39086339     0.17800
H713        H  0.46101429  0.47944522  0.35181728     0.17800
N714        N  0.46950407  0.51309730  0.40186687    -0.88900
H715        H  0.36590997  0.50644110  0.32944344     0.35200
H716        H  0.36104827  0.48296111  0.35929211     0.40300
H717        H  0.47357944  0.53251197  0.39782490     0.39900
H718        H  0.46900623  0.50954268  0.42889183     0.34800
C719        C  0.55693892  0.36551557  0.34482785    -0.27000
C720        C  0.56316548  0.34325131  0.32539440    -0.15000
C721        C  0.54392288  0.33057324  0.30609491     0.35600
C722        C  0.51916003  0.34096620  0.30537643    -0.26400
C723        C  0.51294254  0.36382682  0.32381998    -0.15700
C724        C  0.53200369  0.37580443  0.34446485     0.36700
N725        N  0.52644929  0.39875906  0.36425840    -0.89900
H726        H  0.57155414  0.37502324  0.36035464     0.17800
H727        H  0.50484113  0.33137416  0.28942319     0.17800
N728        N  0.54925529  0.30780574  0.28577279    -0.88900
H729        H  0.53890869  0.41318490  0.35581738     0.35200
H730        H  0.53027981  0.39510542  0.39076409     0.40300
H731        H  0.55552433  0.29337807  0.30274711     0.39900
H732        H  0.56402936  0.31186043  0.26798279     0.34800
C733        C  0.75311020  0.30786631  0.23700841    -0.27000
C734        C  0.76231912  0.33156464  0.22474155    -0.15000
C735        C  0.75262637  0.35439256  0.24056490     0.35600
C736        C  0.73375273  0.35298206  0.26751545    -0.26400
C737        C  0.72502871  0.32919120  0.28028205    -0.15700
C738        C  0.73498964  0.30647197  0.26456684     0.36700
N739        N  0.72615446  0.28177156  0.27570244    -0.89900
H740        H  0.76079525  0.29009346  0.22606481     0.17800
H741        H  0.72566998  0.37055788  0.27848745     0.17800
N742        N  0.76194774  0.37892901  0.22915180    -0.88900
H743        H  0.71824884  0.27232874  0.25389804     0.35200
H744        H  0.74204888  0.27112278  0.28404825     0.40300
H745        H  0.75301697  0.39383206  0.24334777     0.39900
H746        H  0.75661867  0.38113755  0.20284153     0.34800
C747        C  0.61864066  0.18203898  0.30678586    -0.27000
C748        C  0.59738584  0.17593036  0.32789168    -0.15000
C749        C  0.58516225  0.19552910  0.34767602     0.35600
C750        C  0.59442826  0.22067570  0.34606653    -0.26400
C751        C  0.61573010  0.22701547  0.32487968    -0.15700
C752        C  0.62800472  0.20732207  0.30501174     0.36700
N753        N  0.65008094  0.21281021  0.28355427    -0.89900
H754        H  0.62773490  0.16702770  0.29109102     0.17800
H755        H  0.58490467  0.23535981  0.36185394     0.17800
N756        N  0.56384209  0.19033445  0.37044330    -0.88900
H757        H  0.65610493  0.19634611  0.26979599     0.35200
H758        H  0.66510635  0.21766109  0.30049126     0.40300
H759        H  0.56937386  0.17611800  0.38821761     0.39900
H760        H  0.54860702  0.18340856  0.35535125     0.34800
C761        C  0.59794653  0.00480304  0.36166301    -0.27000
C762        C  0.57842326  0.01110611  0.33722553    -0.15000
C763        C  0.55625725  0.99545663  0.33677439     0.35600
C764        C  0.55366058  0.97546954  0.36095248    -0.26400
C765        C  0.57235377  0.97005130  0.38670260    -0.15700
C766        C  0.59516677  0.98463749  0.38616359     0.36700
N767        N  0.61524536  0.98034548  0.41106953    -0.89900
H768        H  0.61508234  0.01648522  0.36302208     0.17800
H769        H  0.53604173  0.96451500  0.36012643     0.17800
N770        N  0.53519173  0.00003265  0.31350235    -0.88900
H771        H  0.62206582  0.96153689  0.40772574     0.35200
H772        H  0.60753606  0.98225424  0.43642757     0.40300
H773        H  0.54193901  0.99978251  0.28753554     0.39900
H774        H  0.52680563  0.01783967  0.31954914     0.34800
C775        C  0.44901443  0.16398837  0.31914899    -0.27000
C776        C  0.42789435  0.14759865  0.32370949    -0.15000
C777        C  0.43282653  0.12112366  0.32957218     0.35600
C778        C  0.45827488  0.11165127  0.33007221    -0.26400
C779        C  0.47927134  0.12790848  0.32418116    -0.15700
C780        C  0.47440051  0.15440319  0.31891868     0.36700
N781        N  0.49527055  0.17175455  0.31334295    -0.89900
H782        H  0.44584271  0.18437133  0.31510150     0.17800
H783        H  0.46152244  0.09123694  0.33371944     0.17800
N784        N  0.41208122  0.10368161  0.33538298    -0.88900
H785        H  0.49449060  0.18596024  0.33298520     0.35200
H786        H  0.49256993  0.18067024  0.28904355     0.40300
H787        H  0.41477272  0.09511977  0.35990936     0.39900
H788        H  0.41307353  0.08922885  0.31610564     0.34800
C789        C  0.23730477  0.14539569  0.23377974    -0.27000
C790        C  0.23075196  0.16850762  0.21670529    -0.15000
C791        C  0.24336377  0.19126611  0.22742237     0.35600
C792        C  0.26101387  0.19071301  0.25547361    -0.26400
C793        C  0.26709188  0.16772349  0.27299857    -0.15700
C794        C  0.25553980  0.14471963  0.26127548     0.36700
N795        N  0.26214345  0.12077987  0.27765319    -0.89900
H796        H  0.22754484  0.12783098  0.22631501     0.17800
H797        H  0.27055606  0.20839643  0.26299126     0.17800
N798        N  0.23778642  0.21524038  0.21070372    -0.88900
H799        H  0.25205000  0.10559445  0.26606039     0.35200
H800        H  0.25614056  0.12190193  0.30393054     0.40300
H801        H  0.25494360  0.22248868  0.20050843     0.39900
H802        H  0.23102568  0.22814051  0.22991786     0.34800
C803        C  0.36068418  0.28799245  0.31038161    -0.27000
C804        C  0.37721884  0.26756266  0.31867644    -0.15000
C805        C  0.40298287  0.27310702  0.32724459     0.35600
C806        C  0.41168405  0.29881844  0.32656234    -0.26400
C807        C  0.39509317  0.31938884  0.31828754    -0.15700
C808        C  0.36921184  0.31366218  0.31058440     0.36700
N809        N  0.35147860  0.33372958  0.30213249    -0.89900
H810        H  0.34073304  0.28408616  0.30450580     0.17800
H811        H  0.43161563  0.30279172  0.33241626     0.17800
N812        N  0.42029623  0.25258596  0.33623171    -0.88900
H813        H  0.33637322  0.33317147  0.32031843     0.35200
H814        H  0.34397415  0.32971094  0.27719208     0.40300
H815        H  0.43851753  0.25981370  0.34191399     0.39900
H816        H  0.42236452  0.24071422  0.31401453     0.34800
C817        C  0.36255801  0.09790357  0.40772942    -0.27000
C818        C  0.34792439  0.12054813  0.41055220    -0.15000
C819        C  0.34267620  0.13064270  0.44448762     0.35600
C820        C  0.35460603  0.12002406  0.47431308    -0.26400
C821        C  0.37262663  0.10004387  0.47061353    -0.15700
C822        C  0.37518197  0.08779492  0.43737591     0.36700
N823        N  0.39242895  0.06643771  0.43314030    -0.89900
H824        H  0.36695952  0.08999706  0.38188967     0.17800
H825        H  0.35246205  0.12978115  0.49950498     0.17800
N826        N  0.32750749  0.15355128  0.44823277    -0.88900
H827        H  0.40652928  0.07145594  0.41480862     0.35200
H828        H  0.38207068  0.05100103  0.42270907     0.40300
H829        H  0.33890051  0.16770827  0.45998275     0.39900
H830        H  0.31230472  0.14962658  0.46538605     0.34800
C831        C  0.51371125  0.10320276  0.44735684    -0.27000
C832        C  0.50368069  0.07946076  0.45901244    -0.15000
C833        C  0.51847000  0.05707687  0.45399405     0.35600
C834        C  0.54150082  0.05853624  0.43461871    -0.26400
C835        C  0.54974072  0.08203413  0.41993907    -0.15700
C836        C  0.53654660  0.10474226  0.42871838     0.36700
N837        N  0.54439234  0.12941386  0.41602855    -0.89900
H838        H  0.50368239  0.12118376  0.45235533     0.17800
H839        H  0.55142176  0.04082284  0.42757784     0.17800
N840        N  0.50453657  0.02760204  0.96064126    -0.88900
H841        H  0.54342745  0.12947965  0.38854472     0.35200
H842        H  0.56339270  0.13248690  0.42363771     0.40300
H843        H  0.50743137  0.02462179  0.98752777     0.39900
H844        H  0.51360870  0.01228103  0.94751098     0.34800
C845        C  0.49140869  0.11509452  0.16601467    -0.27000
C846        C  0.47063976  0.09829850  0.16300759    -0.15000
C847        C  0.46587633  0.08026135  0.18952407     0.35600
C848        C  0.48473106  0.07621606  0.21524674    -0.26400
C849        C  0.50756012  0.09064485  0.21514031    -0.15700
C850        C  0.50993416  0.11145652  0.19164915     0.36700
N851        N  0.53114222  0.12890082  0.19333520    -0.89900
H852        H  0.49450838  0.12975086  0.14627029     0.17800
H853        H  0.48181032  0.06148597  0.23486328     0.17800
N854        N  0.44270272  0.06542449  0.18917770    -0.88900
H855        H  0.52386784  0.14749333  0.19729654     0.35200
H856        H  0.54070328  0.12841013  0.16906330     0.40300
H857        H  0.42733327  0.07830525  0.19199344     0.39900
H858        H  0.44196503  0.05344855  0.21111233     0.34800
C859        C  0.44412394  0.01790203  0.13739454    -0.27000
C860        C  0.42653270  0.02193333  0.10971631    -0.15000
C861        C  0.40359821  0.00749393  0.11004120     0.35600
C862        C  0.39943273  0.98907522  0.13655125    -0.26400
C863        C  0.41758819  0.98432196  0.16341329    -0.15700
C864        C  0.43988296  0.99960820  0.16397701     0.36700
N865        N  0.45917566  0.99557795  0.19017298    -0.89900
H866        H  0.46163116  0.02904441  0.13849960     0.17800
H867        H  0.38237750  0.97728476  0.13489844     0.17800
N868        N  0.38481357  0.01001195  0.08286391    -0.88900
H869        H  0.46215036  0.01291399  0.20360970     0.35200
H870        H  0.47629784  0.99054291  0.17735132     0.40300
H871        H  0.39382536  0.00681916  0.05854520     0.39900
H872        H  0.37746609  0.02874224  0.08355497     0.34800
C873        C  0.47939475  0.88369410  0.31799130    -0.27000
C874        C  0.48181657  0.90591798  0.29752400    -0.15000
C875        C  0.50469671  0.92047364  0.29964605     0.35600
C876        C  0.52382945  0.91335169  0.32323850    -0.26400
C877        C  0.52009605  0.89275319  0.34591676    -0.15700
C878        C  0.49826488  0.87697205  0.34205605     0.36700
N879        N  0.49462798  0.85428059  0.36272932    -0.89900
H880        H  0.46279128  0.87136204  0.31534088     0.17800
H881        H  0.54051809  0.92552860  0.32618677     0.17800
N882        N  0.50838678  0.94294951  0.27868221    -0.88900
H883        H  0.49266586  0.85926863  0.38927812     0.35200
H884        H  0.51087366  0.84255529  0.35975922     0.40300
H885        H  0.52532531  0.94057739  0.26411308     0.39900
H886        H  0.51066019  0.95861867  0.29571684     0.34800
C887        C  0.48945102  0.93255426  0.09676123    -0.27000
C888        C  0.46384698  0.92531889  0.09000982    -0.15000
C889        C  0.45378596  0.92903600  0.05628746     0.35600
C890        C  0.47053326  0.93611800  0.02884060    -0.26400
C891        C  0.49682113  0.94034402  0.03549726    -0.15700
C892        C  0.50546497  0.94136383  0.07032885     0.36700
N893        N  0.53145004  0.94811080  0.07892612    -0.89900
H894        H  0.49720366  0.93158754  0.12316595     0.17800
H895        H  0.46361798  0.93569544  0.00195748     0.17800
N896        N  0.42687271  0.92616732  0.05013172    -0.88900
H897        H  0.53063247  0.96383378  0.09627478     0.35200
H898        H  0.54115857  0.95457372  0.05655932     0.40300
H899        H  0.42439458  0.91251742  0.03015293     0.39900
H900        H  0.41981707  0.94371623  0.04095105     0.34800
C901        C  0.56095932  0.63534921  0.40395123    -0.27000
C902        C  0.57060119  0.65246871  0.42922870    -0.15000
C903        C  0.55467926  0.66086906  0.45709665     0.35600
C904        C  0.52924821  0.65199136  0.45887165    -0.26400
C905        C  0.51953575  0.63446574  0.43372998    -0.15700
C906        C  0.53617304  0.62562051  0.40641969     0.36700
N907        N  0.52898221  0.60639135  0.38113307    -0.89900
H908        H  0.57295299  0.62911014  0.38210940     0.17800
H909        H  0.51706394  0.65873469  0.48021692     0.17800
N910        N  0.56412840  0.67885867  0.48285823    -0.88900
H911        H  0.51274160  0.61270102  0.36766162     0.35200
H912        H  0.52492153  0.58931036  0.39427236     0.40300
H913        H  0.55004895  0.68292087  0.50184602     0.39900
H914        H  0.56785445  0.69613621  0.46993876     0.34800
C915        C  0.57167466  0.80625369  0.40662827    -0.27000
C916        C  0.57423433  0.81562808  0.44135441    -0.15000
C917        C  0.58132914  0.79835712  0.46817811     0.35600
C918        C  0.58816381  0.77308485  0.45930545    -0.26400
C919        C  0.58806166  0.76456083  0.42426272    -0.15700
C920        C  0.57836000  0.78071619  0.39789073     0.36700
N921        N  0.57704982  0.77167107  0.36208867    -0.89900
H922        H  0.56534552  0.81909582  0.38603569     0.17800
H923        H  0.59593806  0.76075911  0.47953644     0.17800
N924        N  0.58324956  0.80666462  0.50415202    -0.88900
H925        H  0.57003855  0.78613524  0.34569075     0.35200
H926        H  0.56373174  0.75670219  0.36127943     0.40300
H927        H  0.60203530  0.80334373  0.51262937     0.39900
H928        H  0.57975527  0.79612076  0.02557666     0.34800
C929        C  0.73455250  0.70480241  0.49274472    -0.27000
C930        C  0.72389023  0.68339290  0.47507070    -0.15000
C931        C  0.73677492  0.65520203  0.98463132     0.35600
C932        C  0.75696180  0.65313374  0.00948906    -0.26400
C933        C  0.76782307  0.67497201  0.02587517    -0.15700
C934        C  0.75420628  0.70234453  0.51790141     0.36700
N935        N  0.76456591  0.72516924  0.53364247    -0.89900
H936        H  0.72741007  0.72398406  0.48741990     0.17800
H937        H  0.76413508  0.63420571  0.01620207     0.17800
N938        N  0.72586349  0.63190514  0.97121399    -0.88900
H939        H  0.74962064  0.73510184  0.54630242     0.35200
H940        H  0.77164683  0.73682007  0.51352016     0.40300
H941        H  0.72750718  0.63186482  0.94376760     0.39900
H942        H  0.70645527  0.63145151  0.97823196     0.34800
C943        C  0.86976204  0.18488933  0.19707108    -0.27000
C944        C  0.89610926  0.18122754  0.19055639    -0.15000
C945        C  0.91110226  0.20253454  0.18075380     0.35600
C946        C  0.89963894  0.22693253  0.17793824    -0.26400
C947        C  0.87346173  0.23064816  0.18538479    -0.15700
C948        C  0.85829595  0.20935214  0.19483113     0.36700
N949        N  0.83123629  0.21249653  0.20128544    -0.89900
H950        H  0.85805173  0.16859786  0.20413506     0.17800
H951        H  0.91132457  0.24311330  0.17006058     0.17800
N952        N  0.93785111  0.19943266  0.17292286    -0.88900
H953        H  0.82295500  0.19498704  0.20836425     0.35200
H954        H  0.82271085  0.21791335  0.17757044     0.40300
H955        H  0.94815416  0.21154106  0.18977602     0.39900
H956        H  0.94102485  0.20548272  0.14708068     0.34800
C957        C  0.03654556  0.11671442  0.19424199    -0.27000
C958        C  0.01605429  0.13406789  0.19172882    -0.15000
C959        C  0.02087196  0.16054252  0.18867631     0.35600
C960        C  0.04641272  0.16915619  0.18764701    -0.26400
C961        C  0.06717701  0.15175982  0.19003778    -0.15700
C962        C  0.06196210  0.12523864  0.19376857     0.36700
N963        N  0.08227248  0.10673970  0.19691267    -0.89900
H964        H  0.03277830  0.09636590  0.19751590     0.17800
H965        H  0.05006695  0.18953102  0.18473365     0.17800
N966        N  0.99985013  0.17844727  0.18632862    -0.88900
H967        H  0.08022779  0.09310517  0.17673690     0.35200
H968        H  0.07996912  0.09727320  0.22090700     0.40300
H969        H  0.99000664  0.17436684  0.16300076     0.39900
H970        H  0.00664723  0.19725905  0.18416016     0.34800
C971        C  0.90669991  0.77621779  0.07300755    -0.27000
C972        C  0.88161543  0.77117899  0.06134275    -0.15000
C973        C  0.86631804  0.79189968  0.04969794     0.35600
C974        C  0.87615037  0.81700954  0.05027464    -0.26400
C975        C  0.90124371  0.82202310  0.06177500    -0.15700
C976        C  0.91667292  0.80131213  0.07299421     0.36700
N977        N  0.94228530  0.80572577  0.08511889    -0.89900
H978        H  0.91865013  0.76059539  0.08236164     0.17800
H979        H  0.86413554  0.83264240  0.04113233     0.17800
N980        N  0.84050640  0.78772207  0.03820788    -0.88900
H981        H  0.95482473  0.79470784  0.06951428     0.35200
H982        H  0.94358328  0.79915811  0.11100873     0.40300
H983        H  0.83892342  0.79438388  0.01239219     0.39900
H984        H  0.82824239  0.79876989  0.05418507     0.34800
C985        C  0.94161865  0.99429296  0.11255295    -0.27000
C986        C  0.91811549  0.98418845  0.10078636    -0.15000
C987        C  0.89539749  0.99200656  0.11862773     0.35600
C988        C  0.89670291  0.00973207  0.14705653    -0.26400
C989        C  0.92024993  0.01952568  0.15906013    -0.15700
C990        C  0.94289220  0.01155974  0.14135322     0.36700
N991        N  0.96727919  0.02169984  0.15161826    -0.89900
H992        H  0.95937253  0.98808418  0.10010321     0.17800
H993        H  0.87911901  0.01641326  0.15951132     0.17800
N994        N  0.87101053  0.98190552  0.10783431    -0.88900
H995        H  0.97535626  0.03087934  0.12984445     0.35200
H996        H  0.97920701  0.00625426  0.15821601     0.40300
H997        H  0.86755420  0.98831384  0.08225852     0.39900
H998        H  0.85623475  0.98933384  0.12369276     0.34800
C999        C  0.08030817  0.29472507  0.20624600    -0.27000
C1000       C  0.09223329  0.31575498  0.18985376    -0.15000
C1001       C  0.11509927  0.31161925  0.17029224     0.35600
C1002       C  0.12620434  0.28702963  0.16928364    -0.26400
C1003       C  0.11474310  0.26642282  0.18661901    -0.15700
C1004       C  0.09133741  0.26997315  0.20459801     0.36700
N1005       N  0.07881562  0.24844248  0.22066912    -0.89900
H1006       H  0.06268508  0.29768028  0.22100610     0.17800
H1007       H  0.14370567  0.28375080  0.15430752     0.17800
N1008       N  0.12685062  0.33228111  0.15120445    -0.88900
H1009       H  0.06156233  0.25424838  0.23248316     0.35200
H1010       H  0.09065697  0.24187587  0.24089669     0.40300
H1011       H  0.11411047  0.33778918  0.13140636     0.39900
H1012       H  0.14361249  0.32598309  0.13849570     0.34800
C1013       C  0.97123237  0.33939534  0.19611821    -0.27000
C1014       C  0.97546167  0.36561705  0.18978397    -0.15000
C1015       C  0.95451856  0.38149429  0.18095904     0.35600
C1016       C  0.92975432  0.37114846  0.17962840    -0.26400
C1017       C  0.92535648  0.34494832  0.18614830    -0.15700
C1018       C  0.94660081  0.32879654  0.19365126     0.36700
N1019       N  0.94378559  0.30179123  0.19974330    -0.89900
H1020       H  0.98722680  0.32702908  0.20298335     0.17800
H1021       H  0.91385883  0.38376232  0.17322249     0.17800
N1022       N  0.95814113  0.40837446  0.17462895    -0.88900
H1023       H  0.93703357  0.29301881  0.17674084     0.35200
H1024       H  0.93039515  0.29921647  0.21997432     0.40300
H1025       H  0.94693781  0.41874966  0.19276990     0.39900
H1026       H  0.95136783  0.41240295  0.14936743     0.34800
C1027       C  0.09834896  0.50207910  0.10931835    -0.27000
C1028       C  0.07517476  0.51071276  0.09437969    -0.15000
C1029       C  0.05197835  0.50246498  0.11017296     0.35600
C1030       C  0.05241893  0.48581750  0.13946362    -0.26400
C1031       C  0.07560070  0.47679524  0.15392176    -0.15700
C1032       C  0.09884582  0.48521499  0.13819980     0.36700
N1033       N  0.12338797  0.47756667  0.15153096    -0.89900
H1034       H  0.11641669  0.50890905  0.09879158     0.17800
H1035       H  0.03433157  0.47930264  0.15030011     0.17800
N1036       N  0.02781050  0.51189356  0.09774327    -0.88900
H1037       H  0.12583490  0.45778332  0.14777195     0.35200
H1038       H  0.12392220  0.48175901  0.17849007     0.40300
H1039       H  0.01869885  0.52162709  0.11855783     0.39900
H1040       H  0.01644851  0.49610473  0.09100112     0.34800
C1041       C  0.93347473  0.62426299  0.05782148    -0.27000
C1042       C  0.93124244  0.65130572  0.05906695    -0.15000
C1043       C  0.95383877  0.66600949  0.06465731     0.35600
C1044       C  0.97763124  0.65357990  0.06706585    -0.26400
C1045       C  0.97961673  0.62672802  0.06537928    -0.15700
C1046       C  0.95734549  0.61195524  0.06108595     0.36700
N1047       N  0.95905603  0.58449250  0.05827311    -0.89900
H1048       H  0.91660282  0.61243360  0.05429759     0.17800
H1049       H  0.99485660  0.66504615  0.06972597     0.17800
N1050       N  0.95354288  0.69350295  0.06763773    -0.88900
H1051       H  0.94747613  0.57660235  0.07793328     0.35200
H1052       H  0.95161525  0.57894275  0.03384017     0.40300
H1053       H  0.94290663  0.69887703  0.08990394     0.39900
H1054       H  0.94513053  0.70118255  0.04504831     0.34800
C1055       C  0.38709067  0.39529240  0.18211961    -0.27000
C1056       C  0.37387005  0.39417938  0.21440288    -0.15000
C1057       C  0.34858071  0.38466563  0.21467165     0.35600
C1058       C  0.33872658  0.37271805  0.18398220    -0.26400
C1059       C  0.35335587  0.37099228  0.15272985    -0.15700
C1060       C  0.37696990  0.38416152  0.15119569     0.36700
N1061       N  0.39208097  0.38335095  0.11944332    -0.89900
H1062       H  0.40653188  0.40262669  0.18181766     0.17800
H1063       H  0.32052007  0.36278148  0.18532258     0.17800
N1064       N  0.33361657  0.38580556  0.24652675    -0.88900
H1065       H  0.40954109  0.39282647  0.12307966     0.35200
H1066       H  0.38206498  0.39362157  0.10030403     0.40300
H1067       H  0.34303224  0.37506976  0.26564803     0.39900
H1068       H  0.31570468  0.37726420  0.24266257     0.34800
C1069       C  0.33010964  0.27559387  0.44780375    -0.27000
C1070       C  0.32963678  0.26260299  0.47996325    -0.15000
C1071       C  0.31962174  0.23718763  0.48112175     0.35600
C1072       C  0.31360532  0.22451864  0.44996769    -0.26400
C1073       C  0.31782835  0.23620199  0.41758837    -0.15700
C1074       C  0.32428320  0.26255016  0.41633001     0.36700
N1075       N  0.32706248  0.27525764  0.38307417    -0.89900
H1076       H  0.33641863  0.29541460  0.44699803     0.17800
H1077       H  0.30776421  0.20455323  0.45091426     0.17800
N1078       N  0.32187171  0.22511514  0.01172205    -0.88900
H1079       H  0.33297151  0.29428917  0.38676778     0.35200
H1080       H  0.30889769  0.27612988  0.37155672     0.40300
H1081       H  0.31091674  0.23626088  0.02925674     0.39900
H1082       H  0.33998976  0.22141682  0.02223772     0.15600
C1083       C  0.32169216  0.21797140  0.16819265    -0.27000
C1084       C  0.33640053  0.24003030  0.17489012    -0.15000
C1085       C  0.35721365  0.23808047  0.19899771     0.35600
C1086       C  0.36356086  0.21451003  0.21381526    -0.26400
C1087       C  0.34678990  0.19388691  0.21123172    -0.15700
C1088       C  0.32633189  0.19515874  0.18699554     0.36700
N1089       N  0.30928222  0.17379281  0.18339147    -0.89900
H1090       H  0.30642134  0.21850104  0.14893124     0.17800
H1091       H  0.37887392  0.21402953  0.23312741     0.17800
N1092       N  0.37172031  0.26023225  0.20954415    -0.88900
H1093       H  0.30938682  0.16801618  0.15696000     0.35200
H1094       H  0.29073902  0.18014449  0.18963364     0.40300
H1095       H  0.39103197  0.25681484  0.20341230     0.39900
H1096       H  0.37009164  0.26240174  0.23686780     0.34800
C1097       C  0.40352322  0.20998786  0.11956816    -0.27000
C1098       C  0.40534721  0.22900133  0.09372018    -0.15000
C1099       C  0.41560192  0.22263608  0.06056293     0.35600
C1100       C  0.42153897  0.19689458  0.05253600    -0.26400
C1101       C  0.41715720  0.17725669  0.07718612    -0.15700
C1102       C  0.40945164  0.18421704  0.11172824     0.36700
N1103       N  0.40622911  0.16517125  0.13842141    -0.89900
H1104       H  0.39526913  0.21478102  0.14506035     0.17800
H1105       H  0.42840517  0.19218097  0.02627795     0.17800
N1106       N  0.41796909  0.24196176  0.03407959    -0.88900
H1107       H  0.38718291  0.16589428  0.14718547     0.35200
H1108       H  0.41802919  0.17006464  0.15963221     0.40300
H1109       H  0.40675920  0.23649059  0.01252663     0.39900
H1110       H  0.43713313  0.24239111  0.02584129     0.34800
C1111       C  0.26674144  0.28835211  0.50465023    -0.27000
C1112       C  0.27307155  0.30813278  0.02496301    -0.15000
C1113       C  0.25977234  0.33147016  0.01911426     0.35600
C1114       C  0.24138808  0.33307016  0.99164198    -0.26400
C1115       C  0.23351081  0.31326794  0.47463664    -0.15700
C1116       C  0.24935246  0.29119951  0.47659435     0.36700
N1117       N  0.24758950  0.27115693  0.45060835    -0.89900
H1118       H  0.27836835  0.27108105  0.50523869     0.17800
H1119       H  0.23065491  0.35080708  0.98860288     0.17800
N1120       N  0.26458820  0.35340316  0.04134915    -0.88900
H1121       H  0.24287472  0.25406870  0.46339460     0.35200
H1122       H  0.26569048  0.26872989  0.43901672     0.40300
H1123       H  0.25860754  0.34873628  0.06682029     0.39900
H1124       H  0.25343811  0.36911956  0.03355962     0.34800
C1125       C  0.12004709  0.39833098  0.31857521    -0.27000
C1126       C  0.12406241  0.38780947  0.28472805    -0.15000
C1127       C  0.14212083  0.36770008  0.28076478     0.35600
C1128       C  0.15385249  0.35685825  0.31061352    -0.26400
C1129       C  0.14780351  0.36555994  0.34483970    -0.15700
C1130       C  0.13189666  0.38751447  0.34861432     0.36700
N1131       N  0.12559105  0.39690068  0.38329251    -0.89900
H1132       H  0.10578035  0.41339063  0.32199947     0.17800
H1133       H  0.16552553  0.33968258  0.30724283     0.17800
N1134       N  0.14659709  0.35648623  0.24667510    -0.88900
H1135       H  0.11310272  0.41265906  0.38184000     0.35200
H1136       H  0.14254093  0.40365029  0.39466303     0.40300
H1137       H  0.14146297  0.33707521  0.24759947     0.39900
H1138       H  0.16626491  0.35744522  0.24132786     0.34800
C1139       C  0.13795082  0.26530955  0.03797480    -0.27000
C1140       C  0.15628590  0.28489699  0.03828111    -0.15000
C1141       C  0.17662531  0.28364873  0.06245773     0.35600
C1142       C  0.17878554  0.26256131  0.08507606    -0.26400
C1143       C  0.16147582  0.24191097  0.08313952    -0.15700
C1144       C  0.14055624  0.24366512  0.05932947     0.36700
N1145       N  0.12176936  0.22379516  0.05565536    -0.89900
H1146       H  0.12176387  0.26318049  0.51932424     0.17800
H1147       H  0.19454312  0.26205167  0.10360406     0.17800
N1148       N  0.19605886  0.30306018  0.06239515    -0.88900
H1149       H  0.11259462  0.22114436  0.07987012     0.35200
H1150       H  0.13097517  0.20676967  0.04777663     0.40300
H1151       H  0.21370251  0.29417482  0.05694147     0.39900
H1152       H  0.19697207  0.31108035  0.08770117     0.34800
C1153       C  0.13683986  0.21691845  0.29628373    -0.27000
C1154       C  0.15627582  0.19878650  0.29047791    -0.15000
C1155       C  0.17871483  0.19981863  0.31111237     0.35600
C1156       C  0.18206803  0.21994976  0.33553279    -0.26400
C1157       C  0.16374081  0.23970406  0.33853235    -0.15700
C1158       C  0.14050222  0.23756630  0.31957292     0.36700
N1159       N  0.12056221  0.25646630  0.32357358    -0.89900
H1160       H  0.11983117  0.21663732  0.27994681     0.17800
H1161       H  0.19952397  0.22076395  0.35091888     0.17800
N1162       N  0.19886214  0.18138072  0.30542256    -0.88900
H1163       H  0.10391476  0.24714496  0.33196968     0.35200
H1164       H  0.11695212  0.26445149  0.29888236     0.40300
H1165       H  0.21543534  0.19138040  0.29839976     0.39900
H1166       H  0.20241932  0.17216805  0.32929392     0.34800
C1167       C  0.97511253  0.88574107  0.19980355    -0.27000
C1168       C  0.98326406  0.90880259  0.21617309    -0.15000
C1169       C  0.96823961  0.93120261  0.21229040     0.35600
C1170       C  0.94741084  0.93062009  0.18877104    -0.26400
C1171       C  0.94158478  0.90818797  0.16922016    -0.15700
C1172       C  0.95456792  0.88529522  0.17650513     0.36700
N1173       N  0.94911397  0.86228723  0.15688772    -0.89900
H1174       H  0.98552813  0.86789973  0.20354528     0.17800
H1175       H  0.93749537  0.94841439  0.18264957     0.17800
N1176       N  0.97505636  0.95469976  0.23006381    -0.88900
H1177       H  0.96567819  0.85685500  0.14300273     0.35200
H1178       H  0.94487669  0.84772912  0.17477027     0.40300
H1179       H  0.97170062  0.95206844  0.25695980     0.39900
H1180       H  0.96292791  0.96970775  0.22238634     0.34800
C1181       C  0.03135899  0.91142922  0.43775532    -0.27000
C1182       C  0.02095218  0.90832976  0.40407127    -0.15000
C1183       C  0.99496780  0.91542874  0.39830750     0.35600
C1184       C  0.97950840  0.92316440  0.42646702    -0.26400
C1185       C  0.98901936  0.92367328  0.46074364    -0.15700
C1186       C  0.01549322  0.91878584  0.46631829     0.36700
N1187       N  0.02597258  0.91951512  0.50111703    -0.89900
H1188       H  0.05133137  0.90666649  0.44232445     0.17800
H1189       H  0.95935928  0.92709151  0.42171760     0.17800
N1190       N  0.98383285  0.91423523  0.36383069    -0.88900
H1191       H  0.04098507  0.93278780  0.50133842     0.35200
H1192       H  0.03861837  0.90938847  0.00525786     0.40300
H1193       H  0.96840702  0.90144663  0.36452842     0.39900
H1194       H  0.97665696  0.93244522  0.35761603     0.34800
C1195       C  0.13686880  0.10743061  0.03453700    -0.27000
C1196       C  0.11419234  0.09323810  0.03885647    -0.15000
C1197       C  0.10561275  0.08810658  0.07334036     0.35600
C1198       C  0.11823308  0.09911081  0.10245519    -0.26400
C1199       C  0.13869978  0.11621251  0.09781453    -0.15700
C1200       C  0.14890805  0.11941483  0.06366107     0.36700
N1201       N  0.16969845  0.13703675  0.05835676    -0.89900
H1202       H  0.14326620  0.11189873  0.00812089     0.17800
H1203       H  0.10991360  0.09691286  0.12842002     0.17800
N1204       N  0.08238675  0.07399279  0.07865061    -0.88900
H1205       H  0.17463218  0.13784511  0.03167174     0.35200
H1206       H  0.18569303  0.12966431  0.07147274     0.40300
H1207       H  0.06930941  0.08595122  0.09197640     0.39900
H1208       H  0.08654468  0.05840302  0.09492170     0.34800
C1209       C  0.07756761  0.19374534  0.44653569    -0.27000
C1210       C  0.09277082  0.17131752  0.44765881    -0.15000
C1211       C  0.11981883  0.17378957  0.44680160     0.35600
C1212       C  0.13093836  0.19818730  0.44419174    -0.26400
C1213       C  0.11572503  0.22034513  0.44185425    -0.15700
C1214       C  0.08874049  0.21809990  0.44328286     0.36700
N1215       N  0.07228116  0.24022947  0.44216426    -0.89900
H1216       H  0.05683647  0.19236891  0.44768319     0.17800
H1217       H  0.15166966  0.19973337  0.44296751     0.17800
N1218       N  0.13623205  0.15167638  0.44887727    -0.88900
H1219       H  0.07493422  0.24943079  0.41807806     0.35200
H1220       H  0.07759893  0.25284525  0.46242557     0.40300
H1221       H  0.14832727  0.15418407  0.47051707     0.39900
H1222       H  0.14766862  0.15102396  0.42618671     0.34800
C1223       C  0.08152479  0.98095814  0.36319632    -0.27000
C1224       C  0.05713919  0.97278076  0.35177907    -0.15000
C1225       C  0.03529564  0.98452056  0.36773263     0.35600
C1226       C  0.03809306  0.00268887  0.39509843    -0.26400
C1227       C  0.06229545  0.01075173  0.40666343    -0.15700
C1228       C  0.08429951  0.00004468  0.38992068     0.36700
N1229       N  0.10939716  0.00861644  0.40008488    -0.89900
H1230       H  0.09851734  0.97211795  0.35176027     0.17800
H1231       H  0.02097003  0.01157079  0.40616137     0.17800
N1232       N  0.00994142  0.97838751  0.35600975    -0.88900
H1233       H  0.12355580  0.99905198  0.38532984     0.35200
H1234       H  0.11214393  0.00343983  0.42635150     0.40300
H1235       H  0.99949287  0.97176993  0.37765532     0.39900
H1236       H  0.00121961  0.99532681  0.34729526     0.34800
C1237       C  0.96611581  0.07079334  0.04303916    -0.27000
C1238       C  0.98824534  0.08610207  0.04392038    -0.15000
C1239       C  0.98866984  0.10780724  0.06667757     0.35600
C1240       C  0.96770411  0.11308960  0.08878594    -0.26400
C1241       C  0.94676852  0.09640283  0.09034951    -0.15700
C1242       C  0.94559093  0.07541309  0.06636762     0.36700
N1243       N  0.92472950  0.05739752  0.06691685    -0.89900
H1244       H  0.96509812  0.05461564  0.02491417     0.17800
H1245       H  0.96916804  0.12876859  0.10771240     0.17800
N1246       N  0.01025525  0.12478961  0.06733476    -0.88900
H1247       H  0.91604259  0.05779198  0.04215998     0.35200
H1248       H  0.91060757  0.06316803  0.08498286     0.40300
H1249       H  0.01748046  0.12524670  0.09299109     0.39900
H1250       H  0.00382811  0.14329872  0.06120959     0.34800
C1251       C  0.99441818  0.10919420  0.31883843    -0.27000
C1252       C  0.99393663  0.08845794  0.29472804    -0.15000
C1253       C  0.01506165  0.07123283  0.29358471     0.35600
C1254       C  0.03506322  0.07412666  0.31803566    -0.26400
C1255       C  0.03456396  0.09384962  0.34346132    -0.15700
C1256       C  0.01458244  0.11213894  0.34296725     0.36700
N1257       N  0.01385069  0.13244385  0.36891772    -0.89900
H1258       H  0.97894459  0.12319611  0.31901177     0.17800
H1259       H  0.05002007  0.05958886  0.31930212     0.17800
N1260       N  0.01576666  0.05032513  0.26856120    -0.88900
H1261       H  0.99748506  0.14391067  0.36578069     0.35200
H1262       H  0.02969422  0.14425837  0.36447191     0.40300
H1263       H  0.00074562  0.03788485  0.27479625     0.39900
H1264       H  0.03276212  0.03970764  0.27099378     0.34800
C1265       C  0.54762029  0.17686538  0.07271988    -0.27000
C1266       C  0.57009852  0.16482801  0.05969995    -0.15000
C1267       C  0.56780247  0.14287257  0.03790681     0.35600
C1268       C  0.54368448  0.13255136  0.03142645    -0.26400
C1269       C  0.52130965  0.14376020  0.04548819    -0.15700
C1270       C  0.52321777  0.16638660  0.06585613     0.36700
N1271       N  0.49620540  0.18116399  0.57351895    -0.89900
H1272       H  0.54901145  0.19374389  0.08952973     0.17800
H1273       H  0.54267976  0.11491876  0.01618002     0.17800
N1274       N  0.58993150  0.13061359  0.02255995    -0.88900
H1275       H  0.49491861  0.20046662  0.56616665     0.35200
H1276       H  0.50305604  0.17802289  0.10867166     0.40300
H1277       H  0.58771229  0.13039642  0.99519821     0.39900
H1278       H  0.59053022  0.11155251  0.03113591     0.34800
C1279       C  0.67831488  0.23311265  0.41889827    -0.27000
C1280       C  0.65999258  0.25294423  0.41760644    -0.15000
C1281       C  0.63617578  0.24957916  0.43499468     0.35600
C1282       C  0.63227468  0.22801547  0.45613616    -0.26400
C1283       C  0.65192077  0.21003929  0.46103816    -0.15700
C1284       C  0.67454475  0.21168119  0.44040427     0.36700
N1285       N  0.69484490  0.19295740  0.44301911    -0.89900
H1286       H  0.69600149  0.23462786  0.40394537     0.17800
H1287       H  0.61494506  0.22699603  0.47198776     0.17800
N1288       N  0.61583130  0.26800307  0.43139606    -0.88900
H1289       H  0.69756648  0.18483674  0.41799024     0.35200
H1290       H  0.68942076  0.17783946  0.45938670     0.40300
H1291       H  0.61093620  0.27488037  0.45647244     0.39900
H1292       H  0.59984045  0.25847225  0.42119476     0.34800
C1293       C  0.66938152  0.29799148  0.19390029    -0.27000
C1294       C  0.64738595  0.29691687  0.21536763    -0.15000
C1295       C  0.63040421  0.27613690  0.21125850     0.35600
C1296       C  0.63731122  0.25540823  0.18952103    -0.26400
C1297       C  0.66061802  0.25526990  0.17062295    -0.15700
C1298       C  0.67617556  0.27736040  0.17169605     0.36700
N1299       N  0.69946035  0.27847352  0.15159174    -0.89900
H1300       H  0.68287105  0.31362833  0.19738822     0.17800
H1301       H  0.62413562  0.23942246  0.18713273     0.17800
N1302       N  0.60651250  0.27516122  0.23003333    -0.88900
H1303       H  0.71468376  0.28130613  0.16904321     0.35200
H1304       H  0.69838487  0.29449925  0.13518715     0.40300
H1305       H  0.59581046  0.29146375  0.22337634     0.39900
H1306       H  0.61003872  0.27589931  0.25705285     0.34800
C1307       C  0.64554087  0.12681125  0.22612559    -0.27000
C1308       C  0.62571365  0.10860355  0.22468844    -0.15000
C1309       C  0.61710298  0.10020771  0.19138269     0.35600
C1310       C  0.62684609  0.11148086  0.16043447    -0.26400
C1311       C  0.64478879  0.13153536  0.16209356    -0.15700
C1312       C  0.65495798  0.13840194  0.19519714     0.36700
N1313       N  0.67319969  0.15884480  0.19769986    -0.89900
H1314       H  0.65189625  0.13400061  0.25148875     0.17800
H1315       H  0.61827769  0.10648590  0.13534096     0.17800
N1316       N  0.59662729  0.08199686  0.18907737    -0.88900
H1317       H  0.68950084  0.15176297  0.21041002     0.35200
H1318       H  0.66525335  0.17344115  0.21345909     0.40300
H1319       H  0.60301042  0.06641469  0.17375514     0.39900
H1320       H  0.58130515  0.09068941  0.17594313     0.34800
C1321       C  0.97069995  0.15806605  0.44858415    -0.27000
C1322       C  0.97193146  0.13113206  0.44858563    -0.15000
C1323       C  0.94917199  0.11677906  0.44829548     0.35600
C1324       C  0.92551887  0.12948631  0.44690319    -0.26400
C1325       C  0.92406207  0.15645496  0.44499331    -0.15700
C1326       C  0.94697198  0.17087448  0.44649179     0.36700
N1327       N  0.94629320  0.19842675  0.44636924    -0.89900
H1328       H  0.98822444  0.16917800  0.44994494     0.17800
H1329       H  0.90822919  0.11801489  0.44680019     0.17800
N1330       N  0.95000103  0.08927370  0.45048853    -0.88900
H1331       H  0.95509481  0.20506783  0.46939306     0.35200
H1332       H  0.95713524  0.20472900  0.42490440     0.40300
H1333       H  0.94059561  0.08169002  0.42848346     0.39900
H1334       H  0.93980720  0.08382080  0.47298409     0.34800
C1335       C  0.87970949  0.09872120  0.32140153    -0.27000
C1336       C  0.87031787  0.10593889  0.28833834    -0.15000
C1337       C  0.84829872  0.12175218  0.28693980     0.35600
C1338       C  0.83816511  0.13274583  0.31815075    -0.26400
C1339       C  0.84987830  0.12825939  0.35075563    -0.15700
C1340       C  0.86976597  0.10985130  0.35249649     0.36700
N1341       N  0.88184271  0.10462049  0.38548018    -0.89900
H1342       H  0.89683169  0.08684905  0.32290991     0.17800
H1343       H  0.82310554  0.14712581  0.31631851     0.17800
N1344       N  0.83784536  0.12884615  0.25359465    -0.88900
H1345       H  0.90125989  0.10932276  0.38312850     0.35200
H1346       H  0.88065377  0.08484744  0.38997969     0.40300
H1347       H  0.83817895  0.14890367  0.25203052     0.39900
H1348       H  0.81863570  0.12314964  0.25317684     0.34800
C1349       C  0.81571875  0.23475994  0.08680678    -0.27000
C1350       C  0.83092662  0.25697609  0.08668052    -0.15000
C1351       C  0.85348838  0.25711813  0.06578888     0.35600
C1352       C  0.85926670  0.23611396  0.04375709    -0.26400
C1353       C  0.84258419  0.21521078  0.04112545    -0.15700
C1354       C  0.82120143  0.21396629  0.06420206     0.36700
N1355       N  0.80357945  0.19276123  0.06320085    -0.89900
H1356       H  0.79901557  0.23380277  0.10384369     0.17800
H1357       H  0.87542282  0.23742978  0.02580331     0.17800
N1358       N  0.87052820  0.27866931  0.06651985    -0.88900
H1359       H  0.80349503  0.18444684  0.08817391     0.35200
H1360       H  0.80275651  0.17683514  0.54579816     0.40300
H1361       H  0.87120115  0.28654115  0.04133130     0.39900
H1362       H  0.88888867  0.27207575  0.07299791     0.34800
C1363       C  0.81900433  0.27599836  0.33962540    -0.27000
C1364       C  0.83497155  0.25411256  0.33738162    -0.15000
C1365       C  0.85476072  0.25369058  0.31138001     0.35600
C1366       C  0.85738220  0.27428795  0.28814795    -0.26400
C1367       C  0.84045946  0.29525634  0.28924229    -0.15700
C1368       C  0.82131348  0.29620247  0.31546572     0.36700
N1369       N  0.80343163  0.31722203  0.31652625    -0.89900
H1370       H  0.80419557  0.27720812  0.35970343     0.17800
H1371       H  0.87149348  0.27285629  0.26712709     0.17800
N1372       N  0.87249356  0.23269293  0.30748259    -0.88900
H1373       H  0.80456490  0.32594455  0.34138353     0.35200
H1374       H  0.78494857  0.30976739  0.31365969     0.40300
H1375       H  0.86230442  0.21594524  0.30155202     0.39900
H1376       H  0.88255529  0.23041650  0.33101786     0.34800
C1377       C  0.75900631  0.16097933  0.99067432    -0.27000
C1378       C  0.76326669  0.18475044  0.47482297    -0.15000
C1379       C  0.75130660  0.20763058  0.48751627     0.35600
C1380       C  0.73343114  0.20655763  0.51532216    -0.26400
C1381       C  0.73012016  0.18255614  0.03252017    -0.15700
C1382       C  0.74131636  0.15972590  0.01895432     0.36700
N1383       N  0.73466825  0.13534883  0.03397120    -0.89900
H1384       H  0.76845346  0.14350021  0.98164159     0.17800
H1385       H  0.72411401  0.22423551  0.52388773     0.17800
N1386       N  0.75715294  0.23236855  0.47331351    -0.88900
H1387       H  0.74102167  0.13542202  0.06006752     0.35200
H1388       H  0.74442823  0.12038694  0.02103079     0.40300
H1389       H  0.75314834  0.23205426  0.44635386     0.39900
H1390       H  0.77663705  0.23610688  0.47702804     0.34800
C1391       C  0.62809105  0.38895935  0.46983578    -0.27000
C1392       C  0.60643519  0.40419856  0.46217043    -0.15000
C1393       C  0.60200257  0.41068204  0.42646476     0.35600
C1394       C  0.61676461  0.39901031  0.39961068    -0.26400
C1395       C  0.63559592  0.38049162  0.40731241    -0.15700
C1396       C  0.64253584  0.37689331  0.44292126     0.36700
N1397       N  0.66270442  0.35941779  0.45270913    -0.89900
H1398       H  0.63229884  0.38411415  0.49692108     0.17800
H1399       H  0.61139709  0.40219281  0.37243306     0.17800
N1400       N  0.58214488  0.42830377  0.41647210    -0.88900
H1401       H  0.67637296  0.37002281  0.46665190     0.35200
H1402       H  0.67216835  0.35210648  0.43045364     0.40300
H1403       H  0.58454536  0.44542554  0.43069446     0.39900
H1404       H  0.56425930  0.42056275  0.42259100     0.34800
C1405       C  0.44228628  0.43910204  0.43515640    -0.27000
C1406       C  0.43442493  0.41491694  0.42168373    -0.15000
C1407       C  0.44270509  0.39247729  0.43828453     0.35600
C1408       C  0.46157457  0.39439914  0.46419598    -0.26400
C1409       C  0.47303453  0.41815355  0.47286469    -0.15700
C1410       C  0.46210589  0.44091430  0.45991725     0.36700
N1411       N  0.47219760  0.46569277  0.46876897    -0.89900
H1412       H  0.43574841  0.45655734  0.42254296     0.17800
H1413       H  0.46912428  0.37688858  0.47528485     0.17800
N1414       N  0.43498422  0.36775165  0.42495971    -0.88900
H1415       H  0.49162465  0.46602391  0.46176279     0.35200
H1416       H  0.47068662  0.46829522  0.49602068     0.40300
H1417       H  0.41545697  0.36567569  0.43048894     0.39900
H1418       H  0.44472229  0.35295941  0.43788627     0.34800
C1419       C  0.50839930  0.43032021  0.20764601    -0.27000
C1420       C  0.49291272  0.40930973  0.21631421    -0.15000
C1421       C  0.49817929  0.38498839  0.20115509     0.35600
C1422       C  0.51668722  0.38269240  0.17472967    -0.26400
C1423       C  0.52949988  0.40438790  0.16236914    -0.15700
C1424       C  0.52653980  0.42807024  0.18027434     0.36700
N1425       N  0.54033819  0.45024747  0.16890699    -0.89900
H1426       H  0.50535153  0.44876704  0.22054865     0.17800
H1427       H  0.51938548  0.36429221  0.16156957     0.17800
N1428       N  0.48451021  0.36258627  0.21226454    -0.88900
H1429       H  0.55104355  0.45711003  0.19020461     0.35200
H1430       H  0.52688850  0.46439969  0.16248599     0.40300
H1431       H  0.49788601  0.34906815  0.22110085     0.39900
H1432       H  0.47510922  0.35474729  0.19043370     0.34800
C1433       C  0.62214054  0.29307528  0.04062941    -0.27000
C1434       C  0.61638761  0.27966183  0.07156165    -0.15000
C1435       C  0.60065755  0.29176343  0.09746726     0.35600
C1436       C  0.59095320  0.31661083  0.09168868    -0.26400
C1437       C  0.59636836  0.32958776  0.06040446    -0.15700
C1438       C  0.61229033  0.31774619  0.03486809     0.36700
N1439       N  0.61901078  0.33098833  0.00326785    -0.89900
H1440       H  0.63450090  0.28449148  0.02069860     0.17800
H1441       H  0.57853015  0.32547220  0.11134381     0.17800
N1442       N  0.59442666  0.27908755  0.12971500    -0.88900
H1443       H  0.61278152  0.32007465  0.98175550     0.35200
H1444       H  0.63902521  0.33205458  0.00206057     0.40300
H1445       H  0.57445742  0.27759804  0.13141894     0.39900
H1446       H  0.60057586  0.29075825  0.15055109     0.34800
C1447       C  0.44500251  0.33258210  0.08789711    -0.27000
C1448       C  0.42843612  0.32793127  0.05938009    -0.15000
C1449       C  0.43909578  0.32579610  0.02526067     0.35600
C1450       C  0.46516642  0.33186969  0.01985362    -0.26400
C1451       C  0.48065680  0.33972170  0.04814587    -0.15700
C1452       C  0.47079151  0.33849655  0.08248734     0.36700
N1453       N  0.48644484  0.34567773  0.11182311    -0.89900
H1454       H  0.43773264  0.33314617  0.11467669     0.17800
H1455       H  0.47266658  0.33247130  0.99325712     0.17800
N1456       N  0.42347792  0.31835204  0.99603086    -0.88900
H1457       H  0.48675940  0.33032590  0.12943296     0.35200
H1458       H  0.47770171  0.36139973  0.12446880     0.40300
H1459       H  0.43176104  0.30202702  0.98430033     0.39900
H1460       H  0.42382646  0.33322240  0.97771895     0.34800
C1461       C  0.61795586  0.59867853  0.30923944    -0.27000
C1462       C  0.62195224  0.60777177  0.27495484    -0.15000
C1463       C  0.64066885  0.62686726  0.26964813     0.35600
C1464       C  0.65203664  0.63916000  0.29892412    -0.26400
C1465       C  0.64541934  0.63251294  0.33367327    -0.15700
C1466       C  0.62987191  0.61038485  0.33847570     0.36700
N1467       N  0.62435858  0.60034348  0.37267289    -0.89900
H1468       H  0.60372663  0.58390569  0.31369916     0.17800
H1469       H  0.66441515  0.65553305  0.29457341     0.17800
N1470       N  0.64605689  0.63552534  0.23457447    -0.88900
H1471       H  0.61477119  0.61429126  0.38765648     0.35200
H1472       H  0.64175082  0.59588279  0.38489291     0.40300
H1473       H  0.65424529  0.62008357  0.22067754     0.39900
H1474       H  0.65977791  0.65014644  0.23500141     0.34800
C1475       C  0.47405391  0.57170462  0.28576020    -0.27000
C1476       C  0.49275115  0.59091339  0.28334104    -0.15000
C1477       C  0.48850980  0.61457153  0.30117332     0.35600
C1478       C  0.46749737  0.61739528  0.32421248    -0.26400
C1479       C  0.45051986  0.59701782  0.32978195    -0.15700
C1480       C  0.45299629  0.57447636  0.30866168     0.36700
N1481       N  0.43547852  0.55330484  0.31185581    -0.89900
H1482       H  0.47620364  0.55407761  0.27055534     0.17800
H1483       H  0.46598897  0.63464679  0.34036062     0.17800
N1484       N  0.50546160  0.63584839  0.29589463    -0.88900
H1485       H  0.42033931  0.55797773  0.32891068     0.35200
H1486       H  0.42715554  0.55030185  0.28716418     0.40300
H1487       H  0.51301992  0.64140203  0.32023205     0.39900
H1488       H  0.49464068  0.65125103  0.28633299     0.34800
C1489       C  0.52149036  0.61813029  0.08083536    -0.27000
C1490       C  0.54090686  0.59945513  0.08212126    -0.15000
C1491       C  0.54015258  0.57850474  0.05846004     0.35600
C1492       C  0.51873296  0.57495082  0.03678715    -0.26400
C1493       C  0.49785978  0.59213616  0.03820621    -0.15700
C1494       C  0.50004303  0.61474195  0.05906463     0.36700
N1495       N  0.48088904  0.63459476  0.05770892    -0.89900
H1496       H  0.52173602  0.63421569  0.09920547     0.17800
H1497       H  0.51821570  0.55834789  0.01935008     0.17800
N1498       N  0.56046776  0.55983794  0.05827123    -0.88900
H1499       H  0.48972911  0.65140560  0.04897523     0.35200
H1500       H  0.47411270  0.63812913  0.08324086     0.40300
H1501       H  0.56807750  0.55887016  0.03277351     0.39900
H1502       H  0.55258584  0.54189636  0.06403894     0.34800
C1503       C  0.53959531  0.51625070  0.13324519    -0.27000
C1504       C  0.56382890  0.51999755  0.14865568    -0.15000
C1505       C  0.58452903  0.50471997  0.13611833     0.35600
C1506       C  0.58033323  0.48552330  0.11023642    -0.26400
C1507       C  0.55585326  0.48128339  0.09545810    -0.15700
C1508       C  0.53544687  0.49763438  0.10684112     0.36700
N1509       N  0.51028467  0.49624334  0.09186448    -0.89900
H1510       H  0.52363475  0.52847275  0.14115321     0.17800
H1511       H  0.59628279  0.47323494  0.10253747     0.17800
N1512       N  0.60985820  0.50769957  0.14997002    -0.88900
H1513       H  0.50168965  0.47893648  0.09893374     0.35200
H1514       H  0.51191041  0.49720445  0.06444056     0.40300
H1515       H  0.60896511  0.50540108  0.17727226     0.39900
H1516       H  0.61612844  0.52634229  0.14468537     0.34800
C1517       C  0.86637760  0.61161020  0.20791247    -0.27000
C1518       C  0.88942799  0.59774175  0.20305862    -0.15000
C1519       C  0.89714567  0.59181998  0.16815963     0.35600
C1520       C  0.88363747  0.60219296  0.13937254    -0.26400
C1521       C  0.86252245  0.61881505  0.14438406    -0.15700
C1522       C  0.85301694  0.62234261  0.17917509     0.36700
N1523       N  0.83124609  0.63862823  0.18657051    -0.89900
H1524       H  0.86002388  0.61642687  0.23438130     0.17800
H1525       H  0.89145646  0.59948486  0.11308897     0.17800
N1526       N  0.91970628  0.57658411  0.16180189    -0.88900
H1527       H  0.81738920  0.62732490  0.19893814     0.35200
H1528       H  0.82285826  0.64510555  0.16330958     0.40300
H1529       H  0.93264668  0.58758364  0.14722333     0.39900
H1530       H  0.91449283  0.56070545  0.14638129     0.34800
C1531       C  0.04718777  0.55850689  0.18148218    -0.27000
C1532       C  0.05677758  0.58142039  0.16663724    -0.15000
C1533       C  0.05053576  0.60501863  0.18252491     0.35600
C1534       C  0.03226977  0.60565648  0.20957741    -0.26400
C1535       C  0.01952716  0.58317209  0.22043468    -0.15700
C1536       C  0.02815542  0.55924169  0.20780129     0.36700
N1537       N  0.01614565  0.53598903  0.21908679    -0.89900
H1538       H  0.05204596  0.54012609  0.16948087     0.17800
H1539       H  0.02646207  0.62417950  0.22006708     0.17800
N1540       N  0.06031349  0.62855679  0.16854823    -0.88900
H1541       H  0.03038263  0.52393340  0.22922352     0.35200
H1542       H  0.00833001  0.52687857  0.19696309     0.40300
H1543       H  0.04477534  0.63981398  0.16040926     0.39900
H1544       H  0.06961185  0.63839919  0.18888125     0.34800
C1545       C  0.99063025  0.60876368  0.45360665    -0.27000
C1546       C  0.99679395  0.58313580  0.46160833    -0.15000
C1547       C  0.98115451  0.56322219  0.44890748     0.35600
C1548       C  0.96230642  0.56892232  0.42373117    -0.26400
C1549       C  0.95873457  0.59434170  0.41226220    -0.15700
C1550       C  0.97109004  0.61446555  0.42993218     0.36700
N1551       N  0.96457990  0.64064954  0.42241423    -0.89900
H1552       H  0.00131194  0.62448021  0.46524877     0.17800
H1553       H  0.95238086  0.55329073  0.41069478     0.17800
N1554       N  0.98532814  0.53727693  0.45993866    -0.88900
H1555       H  0.98122411  0.65013150  0.41465201     0.35200
H1556       H  0.95826131  0.64930824  0.44587083     0.40300
H1557       H  0.98970032  0.52611481  0.43770171     0.39900
H1558       H  0.96813841  0.53047724  0.47059913     0.34800
C1559       C  0.87365480  0.39977720  0.10505779    -0.27000
C1560       C  0.85343245  0.38236403  0.10002784    -0.15000
C1561       C  0.84417416  0.37872744  0.06532914     0.35600
C1562       C  0.85682566  0.39018461  0.03654501    -0.26400
C1563       C  0.87917600  0.40486016  0.04131230    -0.15700
C1564       C  0.88662664  0.41096870  0.07634286     0.36700
N1565       N  0.90872508  0.42657031  0.08364867    -0.89900
H1566       H  0.88129254  0.40258286  0.13130766     0.17800
H1567       H  0.85094821  0.38499688  0.01008313     0.17800
N1568       N  0.82319251  0.36176478  0.05834255    -0.88900
H1569       H  0.90250931  0.44232295  0.09877629     0.35200
H1570       H  0.91629070  0.43425099  0.06051309     0.40300
H1571       H  0.80736789  0.36819968  0.07303695     0.39900
H1572       H  0.82809000  0.34333222  0.06688788     0.34800
C1573       C  0.00672141  0.39140609  0.06211629    -0.27000
C1574       C  0.00666762  0.41523963  0.04478713    -0.15000
C1575       C  0.02896456  0.43046670  0.04594572     0.35600
C1576       C  0.04951077  0.42304733  0.06744695    -0.26400
C1577       C  0.04805974  0.40077957  0.08811549    -0.15700
C1578       C  0.02736380  0.38397029  0.08329066     0.36700
N1579       N  0.02614227  0.36047203  0.10268004    -0.89900
H1580       H  0.99051186  0.37853783  0.05962783     0.17800
H1581       H  0.06519715  0.43638610  0.07144176     0.17800
N1582       N  0.02426599  0.45765811  0.52645171    -0.88900
H1583       H  0.02451409  0.34530755  0.08457839     0.35200
H1584       H  0.00945350  0.36084492  0.11806490     0.40300
H1585       H  0.04046277  0.46854187  0.53276739     0.39900
H1586       H  0.00832239  0.46815350  0.53539240     0.34800
C1587       C  0.95871466  0.42968493  0.31749687    -0.27000
C1588       C  0.95626046  0.40739822  0.33800864    -0.15000
C1589       C  0.97330344  0.38668292  0.33209759     0.35600
C1590       C  0.99408617  0.38975625  0.30917320    -0.26400
C1591       C  0.99805573  0.41304820  0.29134074    -0.15700
C1592       C  0.97944472  0.43266628  0.29424397     0.36700
N1593       N  0.98218917  0.45610049  0.27503577    -0.89900
H1594       H  0.94600797  0.44594214  0.32232554     0.17800
H1595       H  0.00733348  0.37380751  0.30546031     0.17800
N1596       N  0.97085798  0.36292888  0.35070241    -0.88900
H1597       H  0.98282706  0.47135253  0.29312159     0.35200
H1598       H  0.96582106  0.45850382  0.25954763     0.40300
H1599       H  0.95262828  0.35550964  0.34562636     0.39900
H1600       H  0.97227638  0.36653529  0.37773556     0.34800
C1601       C  0.90968590  0.27910722  0.42870649    -0.27000
C1602       C  0.88459340  0.27587446  0.44166826    -0.15000
C1603       C  0.87154510  0.29715038  0.45663444     0.35600
C1604       C  0.88335185  0.32124646  0.45733494    -0.26400
C1605       C  0.90824364  0.32460357  0.44397575    -0.15700
C1606       C  0.92177828  0.30308936  0.43021865     0.36700
N1607       N  0.94738841  0.30510866  0.41666138    -0.89900
H1608       H  0.91993561  0.26290126  0.41713608     0.17800
H1609       H  0.87294949  0.33746155  0.46863754     0.17800
N1610       N  0.84593665  0.29466460  0.47002628    -0.88900
H1611       H  0.95956366  0.31061099  0.43712718     0.35200
H1612       H  0.94764722  0.31928712  0.39727460     0.40300
H1613       H  0.83405832  0.30729594  0.45621422     0.39900
H1614       H  0.84591847  0.30038222  0.49649923     0.34800
C1615       C  0.95638715  0.49212156  0.39306418    -0.27000
C1616       C  0.93181076  0.48514556  0.40475242    -0.15000
C1617       C  0.91036187  0.49592264  0.38693180     0.35600
C1618       C  0.91404836  0.51383101  0.35947623    -0.26400
C1619       C  0.93878819  0.52077323  0.34793653    -0.15700
C1620       C  0.96006180  0.50905835  0.36480084     0.36700
N1621       N  0.98574587  0.51430853  0.35336864    -0.89900
H1622       H  0.97316075  0.48337666  0.40488951     0.17800
H1623       H  0.89739488  0.52283783  0.34773342     0.17800
N1624       N  0.88457930  0.48959112  0.39662070    -0.88900
H1625       H  0.99456736  0.49685293  0.34652272     0.35200
H1626       H  0.99579955  0.52226557  0.37454554     0.40300
H1627       H  0.88227073  0.49308842  0.42360539     0.39900
H1628       H  0.88153393  0.47006962  0.39155493     0.34800
C1629       C  0.02538722  0.34117925  0.43315353    -0.27000
C1630       C  0.02500249  0.36806000  0.43702809    -0.15000
C1631       C  0.04842435  0.38144500  0.43874628     0.35600
C1632       C  0.07159628  0.36782051  0.43726291    -0.26400
C1633       C  0.07226620  0.34079856  0.43391267    -0.15700
C1634       C  0.04874416  0.32747716  0.43106245     0.36700
N1635       N  0.04835093  0.30010779  0.42652928    -0.89900
H1636       H  0.00744423  0.33073932  0.43209462     0.17800
H1637       H  0.08927072  0.37864282  0.43895616     0.17800
N1638       N  0.04926483  0.40880371  0.44352224    -0.88900
H1639       H  0.03855311  0.29592484  0.40321006     0.35200
H1640       H  0.03796205  0.29226391  0.44743453     0.40300
H1641       H  0.03988054  0.41744003  0.42237401     0.39900
H1642       H  0.03946776  0.41359443  0.46676392     0.34800
C1643       C  0.05359616  0.66883366  0.33541493    -0.27000
C1644       C  0.06869029  0.67280644  0.30539186    -0.15000
C1645       C  0.05683159  0.67278491  0.27202489     0.35600
C1646       C  0.03064428  0.66673273  0.26917790    -0.26400
C1647       C  0.01620161  0.66017181  0.29907835    -0.15700
C1648       C  0.02765552  0.66227729  0.33245947     0.36700
N1649       N  0.01326887  0.65618502  0.36339823    -0.89900
H1650       H  0.06230681  0.66954892  0.36129474     0.17800
H1651       H  0.02206471  0.66532445  0.24331179     0.17800
N1652       N  0.07087775  0.67890469  0.24084290    -0.88900
H1653       H  0.01368893  0.67224132  0.38016246     0.35200
H1654       H  0.02252457  0.64098344  0.37609655     0.40300
H1655       H  0.07774064  0.69759610  0.24409060     0.39900
H1656       H  0.08655796  0.66636553  0.23872350     0.34800
C1657       C  0.10292492  0.59633486  0.42427935    -0.27000
C1658       C  0.11684380  0.59694561  0.45596254    -0.15000
C1659       C  0.14224418  0.60669921  0.45509238     0.35600
C1660       C  0.15149404  0.61856345  0.42415592    -0.26400
C1661       C  0.13605387  0.62081412  0.39403419    -0.15700
C1662       C  0.11215027  0.60825477  0.39354731     0.36700
N1663       N  0.09621862  0.60995182  0.36281061    -0.89900
H1664       H  0.08346806  0.58903631  0.42460508     0.17800
H1665       H  0.16989999  0.62817069  0.42482801     0.17800
N1666       N  0.16012088  0.60583210  0.98333402    -0.88900
H1667       H  0.07885624  0.60037966  0.36681229     0.35200
H1668       H  0.10571235  0.60026114  0.34229703     0.40300
H1669       H  0.16621374  0.62446402  0.98944268     0.39900
H1670       H  0.17622447  0.59518333  0.97534146     0.34800
C1671       C  0.11431758  0.78758786  0.34956614    -0.27000
C1672       C  0.12764160  0.77597811  0.32120501    -0.15000
C1673       C  0.12858660  0.78863988  0.28861443     0.35600
C1674       C  0.11525281  0.81178979  0.28448636    -0.26400
C1675       C  0.10163025  0.82320710  0.31260169    -0.15700
C1676       C  0.10139537  0.81106223  0.34555678     0.36700
N1677       N  0.08720351  0.82184042  0.37455396    -0.89900
H1678       H  0.11357204  0.77825455  0.37497493     0.17800
H1679       H  0.11524987  0.82064053  0.25877284     0.17800
N1680       N  0.14232187  0.77781503  0.25925710    -0.88900
H1681       H  0.09989516  0.82467759  0.39547295     0.35200
H1682       H  0.07351709  0.80838749  0.38243817     0.40300
H1683       H  0.15629529  0.79100379  0.25150866     0.39900
H1684       H  0.12941345  0.77575336  0.23845563     0.34800
C1685       C  0.34914551  0.61474956  0.02464550    -0.27000
C1686       C  0.37240873  0.60154631  0.02910926    -0.15000
C1687       C  0.38068023  0.59592699  0.06373061     0.35600
C1688       C  0.36771017  0.60699930  0.09268021    -0.26400
C1689       C  0.34719516  0.62415083  0.08768257    -0.15700
C1690       C  0.33661927  0.62630911  0.05364114     0.36700
N1691       N  0.31459447  0.64234555  0.04806696    -0.89900
H1692       H  0.34251730  0.61904583  0.99831079     0.17800
H1693       H  0.37590173  0.60488296  0.11868362     0.17800
N1694       N  0.40371254  0.58138950  0.07020591    -0.88900
H1695       H  0.30045677  0.63114798  0.03602379     0.35200
H1696       H  0.31973517  0.65690738  0.03059849     0.40300
H1697       H  0.41118618  0.57374343  0.04676906     0.39900
H1698       H  0.39862371  0.56557456  0.08552212     0.34800
C1699       C  0.43019936  0.63265582  0.15745314    -0.27000
C1700       C  0.42195660  0.65358182  0.17806363    -0.15000
C1701       C  0.43900211  0.66526685  0.20176301     0.35600
C1702       C  0.46435545  0.65620504  0.20384852    -0.26400
C1703       C  0.47281936  0.63526646  0.18298104    -0.15700
C1704       C  0.45515911  0.62299012  0.16023523     0.36700
N1705       N  0.46196772  0.60004905  0.14106281    -0.89900
H1706       H  0.41702214  0.62349454  0.13930988     0.17800
H1707       H  0.47737947  0.66554791  0.22202296     0.17800
N1708       N  0.43085963  0.68674417  0.22294453    -0.88900
H1709       H  0.45844240  0.60305264  0.11434805     0.35200
H1710       H  0.44986183  0.58528698  0.14937188     0.40300
H1711       H  0.44285884  0.70225239  0.21732377     0.39900
H1712       H  0.43347526  0.68193883  0.24937645     0.34800
C1713       C  0.26776401  0.69685868  0.25259699    -0.27000
C1714       C  0.27053503  0.67903290  0.22465273    -0.15000
C1715       C  0.25550778  0.65649249  0.22556192     0.35600
C1716       C  0.23725236  0.65313344  0.25305404    -0.26400
C1717       C  0.23386050  0.67152165  0.28041998    -0.15700
C1718       C  0.25012872  0.69329899  0.28041700     0.36700
N1719       N  0.24793932  0.71253441  0.30771345    -0.89900
H1720       H  0.27975948  0.71382456  0.25303133     0.17800
H1721       H  0.22488021  0.63645222  0.25233614     0.17800
N1722       N  0.25827773  0.63741819  0.19819295    -0.88900
H1723       H  0.26078218  0.72761176  0.30341122     0.35200
H1724       H  0.25335595  0.70395881  0.33133934     0.40300
H1725       H  0.25252853  0.64584485  0.17456742     0.39900
H1726       H  0.24589986  0.62200319  0.20263376     0.34800
C1727       C  0.38203781  0.79036413  0.13054263    -0.27000
C1728       C  0.39410788  0.76893102  0.14574289    -0.15000
C1729       C  0.41748544  0.77262216  0.16362912     0.35600
C1730       C  0.42711144  0.79773830  0.16799161    -0.26400
C1731       C  0.41377455  0.81937912  0.15485610    -0.15700
C1732       C  0.39175368  0.81526967  0.13410949     0.36700
N1733       N  0.37857355  0.83647891  0.11795274    -0.89900
H1734       H  0.36388020  0.78796527  0.11739857     0.17800
H1735       H  0.44422672  0.80041926  0.18368060     0.17800
N1736       N  0.43075747  0.75165830  0.17978363    -0.88900
H1737       H  0.36236336  0.83015052  0.10427870     0.35200
H1738       H  0.39096504  0.84423718  0.09915282     0.40300
H1739       H  0.43548515  0.73817881  0.16018581     0.39900
H1740       H  0.41832466  0.74297965  0.19773817     0.34800
C1741       C  0.01752910  0.84188153  0.06384424    -0.27000
C1742       C  0.01529811  0.86835393  0.07151813    -0.15000
C1743       C  0.03745034  0.88219761  0.08109271     0.35600
C1744       C  0.06128817  0.86982269  0.08053353    -0.26400
C1745       C  0.06373431  0.84353793  0.07202041    -0.15700
C1746       C  0.04148118  0.82929382  0.06463652     0.36700
N1747       N  0.04319310  0.80236656  0.05666556    -0.89900
H1748       H  0.00063629  0.83102282  0.05650368     0.17800
H1749       H  0.07811603  0.88093901  0.08689002     0.17800
N1750       N  0.03653096  0.90896845  0.09040104    -0.88900
H1751       H  0.03558552  0.79931533  0.03154629     0.35200
H1752       H  0.03171812  0.79257251  0.07474497     0.40300
H1753       H  0.02830840  0.91921771  0.06974433     0.39900
H1754       H  0.02492712  0.91118331  0.11275185     0.34800
C1755       C  0.14922358  0.86987025  0.18705938    -0.27000
C1756       C  0.14066953  0.87642978  0.15317893    -0.15000
C1757       C  0.12261235  0.89656298  0.15021648     0.35600
C1758       C  0.11001404  0.90612101  0.18071971    -0.26400
C1759       C  0.11586943  0.89669694  0.21446803    -0.15700
C1760       C  0.13738240  0.88024190  0.21764229     0.36700
N1761       N  0.14589285  0.87223525  0.25164710    -0.89900
H1762       H  0.16330272  0.85461158  0.18987286     0.17800
H1763       H  0.09403011  0.91934159  0.17783261     0.17800
N1764       N  0.11527024  0.90532332  0.11592949    -0.88900
H1765       H  0.16500483  0.87790610  0.25439573     0.35200
H1766       H  0.14560436  0.85216843  0.25230634     0.40300
H1767       H  0.13142096  0.91366928  0.10437835     0.39900
H1768       H  0.10135385  0.91983148  0.11804230     0.34800
C1769       C  0.18814417  0.72107811  0.19880459    -0.27000
C1770       C  0.16446093  0.71375010  0.21371473    -0.15000
C1771       C  0.14180281  0.72562970  0.20238348     0.35600
C1772       C  0.14320738  0.74592620  0.17865984    -0.26400
C1773       C  0.16692077  0.75435499  0.16558582    -0.15700
C1774       C  0.18955961  0.74126858  0.17457704     0.36700
N1775       N  0.21378202  0.74897521  0.15990893    -0.89900
H1776       H  0.20571888  0.71197150  0.20764288     0.17800
H1777       H  0.12555834  0.75517933  0.17040768     0.17800
N1778       N  0.11746288  0.71812057  0.21629828    -0.88900
H1779       H  0.22861374  0.73736260  0.16943219     0.35200
H1780       H  0.21746005  0.76769186  0.16878296     0.40300
H1781       H  0.10899783  0.73412217  0.22861915     0.39900
H1782       H  0.10584387  0.71271757  0.19513547     0.34800
C1783       C  0.17379248  0.76892459  0.41471482    -0.27000
C1784       C  0.16187414  0.74482477  0.41847820    -0.15000
C1785       C  0.13967428  0.74342873  0.44008087     0.35600
C1786       C  0.13119042  0.76525966  0.45898726    -0.26400
C1787       C  0.14483599  0.78841010  0.45797997    -0.15700
C1788       C  0.16544269  0.79052520  0.43412568     0.36700
N1789       N  0.17933088  0.81418105  0.43194502    -0.89900
H1790       H  0.19007546  0.77100458  0.39714230     0.17800
H1791       H  0.11567423  0.76313836  0.47785584     0.17800
N1792       N  0.12582633  0.71984010  0.44356208    -0.88900
H1793       H  0.17892750  0.82022591  0.40576228     0.35200
H1794       H  0.19844726  0.81050346  0.43854135     0.40300
H1795       H  0.10688989  0.72311551  0.43569316     0.39900
H1796       H  0.12559185  0.71484413  0.47018085     0.34800
C1797       C  0.13008641  0.70476252  0.05246890    -0.27000
C1798       C  0.11576536  0.72358689  0.07081701    -0.15000
C1799       C  0.09271013  0.71621306  0.08761894     0.35600
C1800       C  0.08431754  0.69059650  0.08528328    -0.26400
C1801       C  0.09864772  0.67185571  0.06693945    -0.15700
C1802       C  0.12178555  0.67907104  0.05023107     0.36700
N1803       N  0.13640402  0.66052701  0.03013057    -0.89900
H1804       H  0.14794262  0.71007341  0.03981032     0.17800
H1805       H  0.06639224  0.68533827  0.09783558     0.17800
N1806       N  0.07747765  0.73469201  0.10666505    -0.88900
H1807       H  0.15309895  0.66884563  0.02006930     0.35200
H1808       H  0.12536610  0.65520578  0.00834753     0.40300
H1809       H  0.07560136  0.72836411  0.13261539     0.39900
H1810       H  0.05919812  0.73516580  0.09541806     0.34800
C1811       C  0.43874867  0.82917127  0.45280233    -0.27000
C1812       C  0.41771756  0.84647977  0.45198808    -0.15000
C1813       C  0.42213463  0.87258762  0.46073136     0.35600
C1814       C  0.44685482  0.88071458  0.46845237    -0.26400
C1815       C  0.46805583  0.86383671  0.46795338    -0.15700
C1816       C  0.46384462  0.83754667  0.46075407     0.36700
N1817       N  0.48498171  0.81968318  0.46003001    -0.89900
H1818       H  0.43577582  0.80906232  0.44642273     0.17800
H1819       H  0.44943656  0.90100752  0.47374269     0.17800
N1820       N  0.40356717  0.87222187  0.99729695    -0.88900
H1821       H  0.47871214  0.80130295  0.45286346     0.35200
H1822       H  0.49191813  0.81824110  0.48574420     0.40300
H1823       H  0.38807596  0.88641234  0.47918520     0.39900
H1824       H  0.39339911  0.88281619  0.97868008     0.34800
C1825       C  0.34225773  0.85646842  0.30200461    -0.27000
C1826       C  0.34858437  0.87048947  0.33258261    -0.15000
C1827       C  0.36344622  0.89296858  0.32900588     0.35600
C1828       C  0.37291566  0.90003051  0.29542846    -0.26400
C1829       C  0.36858004  0.88456294  0.26547028    -0.15700
C1830       C  0.35243144  0.86304836  0.26880912     0.36700
N1831       N  0.34795241  0.84667066  0.23895754    -0.89900
H1832       H  0.33157113  0.83872222  0.30441548     0.17800
H1833       H  0.38597423  0.91611611  0.29332626     0.17800
N1834       N  0.37096980  0.90705605  0.35996939    -0.88900
H1835       H  0.32813298  0.84561161  0.23507241     0.35200
H1836       H  0.35461433  0.82821087  0.24495843     0.40300
H1837       H  0.35430985  0.91469849  0.37147326     0.39900
H1838       H  0.38249872  0.92267249  0.35317112     0.34800
C1839       C  0.35261942  0.76346162  0.30439830    -0.27000
C1840       C  0.33338974  0.75752871  0.32899430    -0.15000
C1841       C  0.32201836  0.73277926  0.32793689     0.35600
C1842       C  0.32773356  0.71614661  0.29948003    -0.26400
C1843       C  0.34543460  0.72339036  0.27357869    -0.15700
C1844       C  0.35919035  0.74643473  0.27755979     0.36700
N1845       N  0.37905996  0.75320327  0.25308291    -0.89900
H1846       H  0.36294685  0.78148969  0.30583298     0.17800
H1847       H  0.31736099  0.69824620  0.29649456     0.17800
N1848       N  0.30455427  0.72472351  0.35504400    -0.88900
H1849       H  0.39600219  0.75610254  0.26719511     0.35200
H1850       H  0.37400735  0.77061378  0.24127797     0.40300
H1851       H  0.31522941  0.72241922  0.37806656     0.39900
H1852       H  0.29734401  0.70646510  0.34917302     0.34800
C1853       C  0.30510062  0.79430548  0.05311218    -0.27000
C1854       C  0.32825960  0.80084181  0.03589465    -0.15000
C1855       C  0.35034035  0.78623371  0.04234741     0.35600
C1856       C  0.34822106  0.76369851  0.06129946    -0.26400
C1857       C  0.32470383  0.75558536  0.07648072    -0.15700
C1858       C  0.30320711  0.77203686  0.07374142     0.36700
N1859       N  0.27911335  0.76614263  0.08992963    -0.89900
H1860       H  0.28781066  0.80526805  0.04775277     0.17800
H1861       H  0.36572041  0.75257910  0.06412880     0.17800
N1862       N  0.37481127  0.79247488  0.02726207    -0.88900
H1863       H  0.28168692  0.76558938  0.11719463     0.35200
H1864       H  0.27331577  0.74797283  0.08113632     0.40300
H1865       H  0.37452240  0.82290597  0.54312535     0.39900
H1866       H  0.37361112  0.79164029  0.99980405     0.34800
C1867       C  0.25268394  0.85134008  0.98352880    -0.27000
C1868       C  0.25684218  0.82588446  0.46209857    -0.15000
C1869       C  0.24713660  0.80223419  0.47481990     0.35600
C1870       C  0.23014303  0.80210815  0.50398801    -0.26400
C1871       C  0.22390244  0.82624884  0.02060119    -0.15700
C1872       C  0.23536458  0.84990817  0.01219530     0.36700
N1873       N  0.22948708  0.87237764  0.03306142    -0.89900
H1874       H  0.26217786  0.86942080  0.97832562     0.17800
H1875       H  0.22230944  0.78397842  0.51280037     0.17800
N1876       N  0.25500594  0.77830119  0.45878767    -0.88900
H1877       H  0.23952369  0.88830660  0.02367729     0.35200
H1878       H  0.23612459  0.86902763  0.05857440     0.40300
H1879       H  0.24742265  0.77782481  0.43333941     0.39900
H1880       H  0.24699847  0.76272940  0.47210926     0.34800
C1881       C  0.35940822  0.71018313  0.43924874    -0.27000
C1882       C  0.37492202  0.73201288  0.43762529    -0.15000
C1883       C  0.40190323  0.72895534  0.43617174     0.35600
C1884       C  0.41270513  0.70424250  0.43620997    -0.26400
C1885       C  0.39719661  0.68221156  0.43680070    -0.15700
C1886       C  0.37017536  0.68540377  0.43850337     0.36700
N1887       N  0.35344034  0.66364846  0.43966132    -0.89900
H1888       H  0.33869846  0.71232077  0.43971389     0.17800
H1889       H  0.43341645  0.70230861  0.43537617     0.17800
N1890       N  0.41882555  0.75059521  0.43524205    -0.88900
H1891       H  0.34117450  0.66456455  0.41797493     0.35200
H1892       H  0.34220093  0.66525887  0.46244692     0.40300
H1893       H  0.41460178  0.76256572  0.45678681     0.39900
H1894       H  0.41567697  0.76081977  0.41208815     0.34800
C1895       C  0.54998414  0.83717215  0.18476433    -0.27000
C1896       C  0.57142768  0.85170660  0.19521299    -0.15000
C1897       C  0.56748530  0.87767561  0.20589714     0.35600
C1898       C  0.54264279  0.88859961  0.20433994    -0.26400
C1899       C  0.52149601  0.87398860  0.19357687    -0.15700
C1900       C  0.52517046  0.84794349  0.18409445     0.36700
N1901       N  0.50358910  0.83252395  0.17372615    -0.89900
H1902       H  0.55255798  0.81732629  0.17649920     0.17800
H1903       H  0.53957485  0.90832645  0.21287574     0.17800
N1904       N  0.58853446  0.89282724  0.21870424    -0.88900
H1905       H  0.50941172  0.81370228  0.16775673     0.35200
H1906       H  0.49623907  0.84024561  0.15048650     0.40300
H1907       H  0.59472489  0.88457362  0.24223328     0.39900
H1908       H  0.58242935  0.91150415  0.22502852     0.34800
C1909       C  0.64343452  0.78010986  0.33782131    -0.27000
C1910       C  0.66554600  0.76508537  0.34397731    -0.15000
C1911       C  0.68890729  0.77268150  0.32946093     0.35600
C1912       C  0.68907520  0.79281335  0.30501928    -0.26400
C1913       C  0.66590055  0.80440225  0.29361634    -0.15700
C1914       C  0.64327576  0.79950943  0.31262344     0.36700
N1915       N  0.61947949  0.81209629  0.30479814    -0.89900
H1916       H  0.62560502  0.77537556  0.35075955     0.17800
H1917       H  0.70686236  0.79703594  0.29155921     0.17800
N1918       N  0.71188161  0.75866221  0.33712049    -0.88900
H1919       H  0.61425953  0.80764808  0.27892290     0.35200
H1920       H  0.62221970  0.83195986  0.30700656     0.40300
H1921       H  0.72513025  0.77155448  0.34778749     0.39900
H1922       H  0.71927558  0.75126469  0.31346820     0.34800
C1923       C  0.63700401  0.74526386  0.07759041    -0.27000
C1924       C  0.66151992  0.75491113  0.08503903    -0.15000
C1925       C  0.68331011  0.74281010  0.07017957     0.35600
C1926       C  0.67998466  0.72256627  0.04610515    -0.26400
C1927       C  0.65529004  0.71436174  0.03656984    -0.15700
C1928       C  0.63377674  0.72507696  0.05355161     0.36700
N1929       N  0.60852350  0.71646528  0.04467171    -0.89900
H1930       H  0.62019109  0.75369252  0.09013689     0.17800
H1931       H  0.69659219  0.71498291  0.03220553     0.17800
N1932       N  0.70873332  0.75179870  0.07719340    -0.88900
H1933       H  0.59803685  0.73222385  0.03551092     0.35200
H1934       H  0.59967884  0.71005523  0.06774005     0.40300
H1935       H  0.71228835  0.75006896  0.10413027     0.39900
H1936       H  0.70961803  0.77127083  0.07060548     0.34800
C1937       C  0.64826780  0.86747479  0.06063847    -0.27000
C1938       C  0.64149806  0.87657738  0.09442913    -0.15000
C1939       C  0.62435939  0.89766177  0.09706563     0.35600
C1940       C  0.61243752  0.90724392  0.06669669    -0.26400
C1941       C  0.61658885  0.89579125  0.03333203    -0.15700
C1942       C  0.63600389  0.87685215  0.03018162     0.36700
N1943       N  0.64142295  0.86512336  0.99669895    -0.89900
H1944       H  0.66102725  0.85101938  0.05813728     0.17800
H1945       H  0.59773634  0.92192943  0.06981119     0.17800
N1946       N  0.61680703  0.90804491  0.13063642    -0.88900
H1947       H  0.63766940  0.84544000  0.99853578     0.35200
H1948       H  0.65783532  0.85607465  0.48832937     0.40300
H1949       H  0.63334709  0.91394416  0.14386684     0.39900
H1950       H  0.60811496  0.89351621  0.14526429     0.34800
C1951       C  0.62017867  0.68372440  0.18485328    -0.27000
C1952       C  0.59338290  0.68153268  0.18867381    -0.15000
C1953       C  0.57870206  0.70434965  0.19305256     0.35600
C1954       C  0.59089029  0.72842911  0.19328027    -0.26400
C1955       C  0.61762213  0.73042017  0.19008365    -0.15700
C1956       C  0.63235777  0.70771142  0.18575348     0.36700
N1957       N  0.65960681  0.70847086  0.18070762    -0.89900
H1958       H  0.63189487  0.66666651  0.18103945     0.17800
H1959       H  0.57932057  0.74575357  0.19568543     0.17800
N1960       N  0.55136865  0.70333698  0.19688226    -0.88900
H1961       H  0.66786075  0.71722629  0.20276267     0.35200
H1962       H  0.66356852  0.71960804  0.15855204     0.40300
H1963       H  0.54314885  0.71403905  0.17660344     0.39900
H1964       H  0.54642026  0.71214727  0.22083818     0.34800
C1965       C  0.95008343  0.82181135  0.33889439    -0.27000
C1966       C  0.93188761  0.82011512  0.31188311    -0.15000
C1967       C  0.93982110  0.82294173  0.27661065     0.35600
C1968       C  0.96546480  0.82956955  0.26922041    -0.26400
C1969       C  0.98315583  0.83362024  0.29649315    -0.15700
C1970       C  0.97549229  0.82900993  0.33149452     0.36700
N1971       N  0.99295477  0.83378671  0.35982160    -0.89900
H1972       H  0.94412537  0.81940203  0.36605009     0.17800
H1973       H  0.97106643  0.83375053  0.24238437     0.17800
N1974       N  0.92154911  0.81998319  0.24863127    -0.88900
H1975       H  0.99466336  0.81690392  0.37441479     0.35200
H1976       H  0.98493480  0.84799106  0.37621283     0.40300
H1977       H  0.91528173  0.80090721  0.24883941     0.39900
H1978       H  0.93040186  0.82272855  0.22421746     0.34800
C1979       C  0.84120820  0.87031077  0.43303530    -0.27000
C1980       C  0.85537719  0.87211338  0.40153326    -0.15000
C1981       C  0.87567253  0.88981589  0.39991652     0.35600
C1982       C  0.88296679  0.90358009  0.43033093    -0.26400
C1983       C  0.87095994  0.89932058  0.46301480    -0.15700
C1984       C  0.84878156  0.88383258  0.46379734     0.36700
N1985       N  0.84122259  0.87368891  0.99936522    -0.89900
H1986       H  0.82577210  0.85646424  0.43456815     0.17800
H1987       H  0.90037347  0.91491193  0.42941951     0.17800
N1988       N  0.89071585  0.89175958  0.36839407    -0.88900
H1989       H  0.82604197  0.86085481  0.99581648     0.35200
H1990       H  0.83326435  0.89071066  0.00952358     0.40300
H1991       H  0.90963399  0.88661663  0.37432825     0.39900
H1992       H  0.89062871  0.91100830  0.36063429     0.34800
C1993       C  0.82167784  0.76249298  0.16562923    -0.27000
C1994       C  0.83980562  0.74253023  0.16365593    -0.15000
C1995       C  0.86240037  0.74427023  0.18420061     0.35600
C1996       C  0.86513191  0.76446813  0.20859652    -0.26400
C1997       C  0.84591293  0.78315028  0.21241364    -0.15700
C1998       C  0.82456708  0.78269200  0.18979278     0.36700
N1999       N  0.80504004  0.80209432  0.19279970    -0.89900
H2000       H  0.80490046  0.76219263  0.14885078     0.17800
H2001       H  0.88137798  0.76443026  0.22634889     0.17800
N2002       N  0.88279791  0.72586529  0.18005844    -0.88900
H2003       H  0.78765319  0.79295128  0.19813221     0.35200
H2004       H  0.80335578  0.81110412  0.16840250     0.40300
H2005       H  0.88635610  0.71743218  0.20445613     0.39900
H2006       H  0.89933860  0.73575021  0.17252741     0.34800
C2007       C  0.85043893  0.74832540  0.43661496    -0.27000
C2008       C  0.82852860  0.74716855  0.41510592    -0.15000
C2009       C  0.81492376  0.72370385  0.41291348     0.35600
C2010       C  0.82221970  0.70298855  0.43439540    -0.26400
C2011       C  0.84282428  0.70506408  0.45793252    -0.15700
C2012       C  0.85813051  0.72741119  0.45710993     0.36700
N2013       N  0.88434454  0.72469802  0.96726854    -0.89900
H2014       H  0.86209686  0.76553465  0.43719797     0.17800
H2015       H  0.81012610  0.68609404  0.43549643     0.17800
N2016       N  0.79327032  0.72119370  0.38981917    -0.88900
H2017       H  0.89839687  0.72541771  0.94755309     0.35200
H2018       H  0.88764124  0.70754499  0.98062458     0.40300
H2019       H  0.77898879  0.73380658  0.39893459     0.39900
H2020       H  0.78562769  0.70265291  0.39110900     0.34800
C2021       C  0.76602272  0.84731850  0.25337060    -0.27000
C2022       C  0.77042034  0.82446272  0.27223488    -0.15000
C2023       C  0.75690205  0.80207336  0.26137332     0.35600
C2024       C  0.73955556  0.80318365  0.23321387    -0.26400
C2025       C  0.73433270  0.82622213  0.21551029    -0.15700
C2026       C  0.74792081  0.84854003  0.22589276     0.36700
N2027       N  0.74412664  0.87259233  0.20849664    -0.89900
H2028       H  0.77679776  0.86445068  0.26002005     0.17800
H2029       H  0.72906149  0.78592475  0.22627518     0.17800
N2030       N  0.76051616  0.77765381  0.27786826    -0.88900
H2031       H  0.72509403  0.87847845  0.21205842     0.35200
H2032       H  0.74744660  0.86975669  0.18156190     0.40300
H2033       H  0.75641195  0.77966222  0.30465026     0.39900
H2034       H  0.77957790  0.77181073  0.27474417     0.34800
C2035       C  0.89144330  0.70863933  0.34343198    -0.27000
C2036       C  0.87287157  0.71781128  0.31975495    -0.15000
C2037       C  0.86538739  0.70195638  0.29115630     0.35600
C2038       C  0.87795402  0.67846624  0.28523982    -0.26400
C2039       C  0.89695319  0.66986529  0.30829263    -0.15700
C2040       C  0.90345691  0.68470989  0.33808204     0.36700
N2041       N  0.92266855  0.67571647  0.36221076    -0.89900
H2042       H  0.89695645  0.72029113  0.36592496     0.17800
H2043       H  0.87260635  0.66670336  0.26273808     0.17800
N2044       N  0.84471586  0.70923944  0.26848231    -0.88900
H2045       H  0.92505062  0.68885054  0.38293887     0.35200
H2046       H  0.94016899  0.67487158  0.34865696     0.40300
H2047       H  0.85155807  0.70950711  0.24261702     0.39900
H2048       H  0.83058096  0.69507522  0.26996082     0.34800
O2049       O  0.81504999  0.76412717  0.85865752    -0.86000
O2050       O  0.79495601  0.80733573  0.82010382    -0.83000
C2051       C  0.79382403  0.82392916  0.79593484     0.97500
O2052       O  0.81420138  0.83582556  0.78767284    -0.83100
O2053       O  0.84358563  0.85278633  0.84730012    -0.85700
C2054       C  0.85630480  0.85001750  0.87550970     1.02000
O2055       O  0.86922662  0.82974734  0.88092403    -0.78500
O2056       O  0.83638169  0.78972434  0.89285108    -0.78700
C2057       C  0.82442235  0.76904188  0.88850994     1.01900
O2058       O  0.84661160  0.75332170  0.80074631    -0.86000
O2059       O  0.82405894  0.79062455  0.76185389    -0.83100
C2060       C  0.84336678  0.79813643  0.74500429     0.97500
O2061       O  0.85979589  0.81265205  0.75925352    -0.83100
O2062       O  0.88922872  0.83384464  0.81239597    -0.85700
C2063       C  0.90527812  0.81617297  0.81909338     1.02000
O2064       O  0.89835679  0.79624930  0.83480876    -0.78500
O2065       O  0.86766796  0.75637203  0.85047886    -0.78700
C2066       C  0.86166176  0.74383617  0.82309512     1.01900
Cr2067     Cr  0.82177666  0.78088637  0.81197080     1.93700
Cr2068     Cr  0.85118906  0.83174906  0.80376158     1.93200
Cr2069     Cr  0.86632674  0.79384699  0.86214746     1.39100
O2070       O  0.84648756  0.80217001  0.82611975    -1.23700
O2071       O  0.67217503  0.76704643  0.64258425    -0.86000
O2072       O  0.70491403  0.80548320  0.67280168    -0.83000
C2073       C  0.71151305  0.82416782  0.69237863     0.97500
O2074       O  0.69467559  0.84018320  0.70259441    -0.83100
O2075       O  0.66229072  0.85797496  0.64669289    -0.85700
C2076       C  0.64520392  0.85592777  0.62292755     1.02000
O2077       O  0.62734570  0.83975708  0.62584463    -0.78500
O2078       O  0.64874621  0.79312790  0.61107339    -0.78700
C2079       C  0.66076268  0.77223828  0.61430264     1.01900
O2080       O  0.64666919  0.76347155  0.70727040    -0.86000
O2081       O  0.67982057  0.79855927  0.73680587    -0.83100
C2082       C  0.66535179  0.81159015  0.75664402     0.97500
O2083       O  0.65095569  0.82922442  0.74424715    -0.83100
O2084       O  0.61928739  0.85403800  0.69328895    -0.85700
C2085       C  0.59886433  0.84099164  0.69203359     1.02000
O2086       O  0.60035357  0.81747844  0.68403207    -0.78500
O2087       O  0.61924422  0.77008310  0.66457295    -0.78700
C2088       C  0.62752024  0.75648876  0.68938131     1.01900
Cr2089     Cr  0.67420085  0.78601998  0.68847239     1.93700
Cr2090     Cr  0.65657370  0.84297111  0.69515515     1.93200
Cr2091     Cr  0.62611765  0.80564968  0.64893994     1.39100
O2092       O  0.65241051  0.81142459  0.67735422    -1.23700
O2093       O  0.33883106  0.80006993  0.85533564    -0.86000
O2094       O  0.36834118  0.84128343  0.87339150    -0.83000
C2095       C  0.35147961  0.85856551  0.87010757     0.97500
O2096       O  0.33419771  0.86126735  0.89363410    -0.83100
O2097       O  0.29979183  0.84555744  0.94854057    -0.85700
C2098       C  0.28201637  0.83052324  0.93900940     1.02000
O2099       O  0.28728025  0.81249134  0.91750288    -0.78500
O2100       O  0.31657118  0.77230732  0.88515657    -0.78700
C2101       C  0.32698265  0.77913840  0.85673696     1.01900
O2102       O  0.36671538  0.76843396  0.90341949    -0.86000
O2103       O  0.39078702  0.81088505  0.92790528    -0.83100
C2104       C  0.39439602  0.83264183  0.94155869     0.97500
O2105       O  0.37655093  0.84937450  0.94123758    -0.83100
O2106       O  0.33887214  0.83208706  0.48800963    -0.85700
C2107       C  0.32452139  0.81474674  0.50077057     1.02000
O2108       O  0.31054297  0.80143421  0.98116053    -0.78500
O2109       O  0.34185061  0.76448947  0.94970050    -0.78700
C2110       C  0.36004702  0.75622693  0.93046724     1.01900
Cr2111     Cr  0.36419117  0.80578686  0.89220993     1.93700
Cr2112     Cr  0.33809615  0.84437687  0.94141019     1.93200
Cr2113     Cr  0.31566454  0.78961653  0.93225270     1.39100
O2114       O  0.33927585  0.81317540  0.92224789    -1.23700
O2115       O  0.14889313  0.79366003  0.64060072    -0.86000
O2116       O  0.12159085  0.83712779  0.62582310    -0.83000
C2117       C  0.13616985  0.85624475  0.62127725     0.97500
O2118       O  0.15061291  0.85758505  0.59413053    -0.83100
O2119       O  0.17954256  0.83727196  0.53523904    -0.85700
C2120       C  0.19891812  0.82408346  0.54419353     1.02000
O2121       O  0.19629700  0.80642400  0.56673262    -0.78500
O2122       O  0.17101972  0.76762459  0.60643420    -0.78700
C2123       C  0.16248813  0.77383037  0.63637160     1.01900
O2124       O  0.11657120  0.76367199  0.59630001    -0.86000
O2125       O  0.09100081  0.80773586  0.57737999    -0.83100
C2126       C  0.08680123  0.83001197  0.56617449     0.97500
O2127       O  0.10516331  0.84464676  0.55860644    -0.83100
O2128       O  0.13283307  0.81820509  0.50508242    -0.85700
C2129       C  0.14792733  0.80156690  0.99584384     1.02000
O2130       O  0.16634597  0.79276771  0.50957488    -0.78500
O2131       O  0.13959075  0.75763577  0.54843516    -0.78700
C2132       C  0.12307079  0.74981421  0.57023933     1.01900
Cr2133     Cr  0.12138856  0.80111335  0.60708470     1.93700
Cr2134     Cr  0.14234674  0.83714573  0.55002548     1.93200
Cr2135     Cr  0.16653826  0.78332454  0.55938387     1.39100
O2136       O  0.14364841  0.80727068  0.57265765    -1.23700
O2137       O  0.30874926  0.73403590  0.62709738    -0.86000
O2138       O  0.29747133  0.71235040  0.69524350    -0.83000
C2139       C  0.29001445  0.68927278  0.69861449     0.97500
O2140       O  0.30305931  0.67116443  0.68446886    -0.83100
O2141       O  0.34485613  0.64827640  0.64416181    -0.85700
C2142       C  0.34318568  0.65234247  0.61112172     1.02000
O2143       O  0.34259716  0.67503709  0.59986985    -0.78500
O2144       O  0.34402307  0.72721144  0.59706979    -0.78700
C2145       C  0.32328506  0.73932593  0.60131842     1.01900
O2146       O  0.35390013  0.75407060  0.65532672    -0.86000
O2147       O  0.34625128  0.73080472  0.71621139    -0.83100
C2148       C  0.34365057  0.71449991  0.73994736     0.97500
O2149       O  0.33816372  0.69142902  0.73285713    -0.83100
O2150       O  0.37927878  0.67272092  0.69455973    -0.85700
C2151       C  0.39517557  0.66998525  0.66976284     1.02000
O2152       O  0.38887771  0.67527988  0.63876509    -0.78500
O2153       O  0.38670840  0.72917374  0.64246575    -0.78700
C2154       C  0.37751396  0.75135816  0.64906902     1.01900
Cr2155     Cr  0.32739137  0.73007318  0.67241532     1.93700
Cr2156     Cr  0.34147559  0.67297652  0.68639995     1.93200
Cr2157     Cr  0.36381344  0.70143667  0.62255140     1.39100
O2158       O  0.34354908  0.70129826  0.66004395    -1.23700
O2159       O  0.17656290  0.73119529  0.86561549    -0.86000
O2160       O  0.20291710  0.69061846  0.82765790    -0.83000
C2161       C  0.20731657  0.67490817  0.80263186     0.97500
O2162       O  0.18860760  0.66215848  0.79028531    -0.83100
O2163       O  0.15446997  0.64292177  0.84413320    -0.85700
C2164       C  0.13786681  0.64431696  0.86878059     1.02000
O2165       O  0.12305972  0.66367085  0.87140216    -0.78500
O2166       O  0.15221988  0.70440692  0.89350242    -0.78700
C2167       C  0.16407786  0.72533767  0.89298552     1.01900
O2168       O  0.15129832  0.74345360  0.80299784    -0.86000
O2169       O  0.17915095  0.70780362  0.76605735    -0.83100
C2170       C  0.16162604  0.70049847  0.74576595     0.97500
O2171       O  0.14516357  0.68415966  0.75574182    -0.83100
O2172       O  0.11146802  0.65977896  0.80222518    -0.85700
C2173       C  0.09403018  0.67656398  0.80716155     1.02000
O2174       O  0.09922976  0.69763626  0.82153366    -0.78500
O2175       O  0.12523457  0.73820592  0.84775763    -0.78700
C2176       C  0.13373062  0.75187875  0.82298705     1.01900
Cr2177     Cr  0.17588260  0.71620528  0.81672299     1.93700
Cr2178     Cr  0.15016077  0.66418307  0.80017090     1.93200
Cr2179     Cr  0.12683975  0.70028498  0.85618169     1.39100
O2180       O  0.15103715  0.69355132  0.82457321    -1.23700
O2181       O  0.96238384  0.40855337  0.52024574    -0.86000
O2182       O  0.91695385  0.38421997  0.50855601    -0.83000
C2183       C  0.89872878  0.40040750  0.50721003     0.97500
O2184       O  0.89714937  0.41861004  0.98498181    -0.83100
O2185       O  0.91751791  0.44612090  0.92518296    -0.85700
C2186       C  0.93245821  0.46430961  0.93335100     1.02000
O2187       O  0.95020931  0.46009979  0.95543247    -0.78500
O2188       O  0.98950296  0.43142351  0.99201938    -0.78700
C2189       C  0.98337104  0.41974597  0.51521787     1.01900
O2190       O  0.98760657  0.37571844  0.97964968    -0.86000
O2191       O  0.94098593  0.35474075  0.96526828    -0.83100
C2192       C  0.91870764  0.35268976  0.95320655     0.97500
O2193       O  0.90541679  0.37240226  0.94700326    -0.83100
O2194       O  0.93200652  0.39801092  0.89347273    -0.85700
C2195       C  0.94956177  0.41150240  0.87960568     1.02000
O2196       O  0.96010337  0.42919860  0.89677567    -0.78500
O2197       O  0.99465416  0.39983444  0.93329763    -0.78700
C2198       C  0.00135071  0.38192329  0.95362529     1.01900
Cr2199     Cr  0.95167732  0.38452851  0.99410489     1.93700
Cr2200     Cr  0.91546289  0.40891269  0.93955081     1.93200
Cr2201     Cr  0.97115314  0.42860255  0.94616313     1.39100
O2202       O  0.94611197  0.40744913  0.96037411    -1.23700
O2203       O  0.97797698  0.60415979  0.73073386    -0.86000
O2204       O  0.92540029  0.59681262  0.72744918    -0.83000
C2205       C  0.90218336  0.59508739  0.73666760     0.97500
O2206       O  0.89655087  0.59428254  0.76950153    -0.83100
O2207       O  0.92322754  0.55390960  0.80943192    -0.85700
C2208       C  0.94206519  0.54355589  0.82537063     1.02000
O2209       O  0.96357516  0.55472447  0.82553048    -0.78500
O2210       O  0.98662077  0.56931760  0.76067930    -0.78700
C2211       C  0.99137455  0.58415390  0.73523101     1.01900
O2212       O  0.97108695  0.64607820  0.77769615    -0.86000
O2213       O  0.91807119  0.64144004  0.76981236    -0.83100
C2214       C  0.91003708  0.64550900  0.80067290     0.97500
O2215       O  0.91334757  0.62910167  0.82438790    -0.83100
O2216       O  0.93541434  0.58963244  0.86230015    -0.85700
C2217       C  0.95695947  0.59785175  0.87262148     1.02000
O2218       O  0.97345110  0.60515253  0.85081548    -0.78500
O2219       O  0.99937174  0.61657874  0.79171028    -0.78700
C2220       C  0.99355895  0.63975637  0.78689185     1.01900
Cr2221     Cr  0.94801201  0.62026178  0.75422280     1.93700
Cr2222     Cr  0.91925496  0.59222193  0.81396530     1.93200
Cr2223     Cr  0.97809414  0.58702875  0.80581194     1.39100
O2224       O  0.94833525  0.59920389  0.79078840    -1.23700
O2225       O  0.53398504  0.60080719  0.76423477    -0.86000
O2226       O  0.58048889  0.62318686  0.75133921    -0.83000
C2227       C  0.59868831  0.60697453  0.74847654     0.97500
O2228       O  0.60021329  0.59181565  0.72197945    -0.83100
O2229       O  0.58005804  0.56217389  0.66425888    -0.85700
C2230       C  0.56496636  0.54475861  0.67481351     1.02000
O2231       O  0.54773125  0.55055983  0.69711025    -0.78500
O2232       O  0.50790094  0.58028576  0.72924918    -0.78700
C2233       C  0.51294487  0.58976159  0.75897880     1.01900
O2234       O  0.50938233  0.63348316  0.71480191    -0.86000
O2235       O  0.55593355  0.65452335  0.69885018    -0.83100
C2236       C  0.57889451  0.65693007  0.68944571     0.97500
O2237       O  0.59233677  0.63709338  0.68335999    -0.83100
O2238       O  0.56606609  0.60935301  0.62981459    -0.85700
C2239       C  0.54911668  0.59472854  0.61652188     1.02000
O2240       O  0.53890870  0.57755859  0.63471656    -0.78500
O2241       O  0.50465621  0.60913272  0.66791323    -0.78700
C2242       C  0.49654409  0.62679284  0.68805345     1.01900
Cr2243     Cr  0.54557595  0.62610226  0.72967963     1.93700
Cr2244     Cr  0.58238737  0.60011579  0.67641162     1.93200
Cr2245     Cr  0.52698276  0.58082109  0.68379265     1.39100
O2246       O  0.55170031  0.60223953  0.69715662    -1.23700
O2247       O  0.51479998  0.39231764  0.98400999    -0.86000
O2248       O  0.56678979  0.40229678  0.97995964    -0.83000
C2249       C  0.58990385  0.40523534  0.98868251     0.97500
O2250       O  0.59266792  0.40773167  0.52267802    -0.83100
O2251       O  0.56713739  0.44759598  0.56209804    -0.85700
C2252       C  0.54880128  0.45885354  0.57812751     1.02000
O2253       O  0.52733303  0.44779625  0.58081483    -0.78500
O2254       O  0.50266560  0.43207555  0.51773697    -0.78700
C2255       C  0.50033845  0.41157821  0.98814236     1.01900
O2256       O  0.51905089  0.35555219  0.53321870    -0.86000
O2257       O  0.57172004  0.36070595  0.52272412    -0.83100
C2258       C  0.58040106  0.35625715  0.55294590     0.97500
O2259       O  0.57759237  0.37261782  0.57742347    -0.83100
O2260       O  0.55634258  0.41284606  0.61697397    -0.85700
C2261       C  0.53516118  0.40437659  0.62822552     1.02000
O2262       O  0.51784295  0.39785538  0.60719884    -0.78500
O2263       O  0.49092642  0.38490664  0.54970367    -0.78700
C2264       C  0.49680353  0.36171398  0.54392913     1.01900
Cr2265     Cr  0.54133047  0.38147110  0.50913211     1.93700
Cr2266     Cr  0.57119083  0.40967962  0.56771478     1.93200
Cr2267     Cr  0.51226758  0.41505126  0.56243477     1.39100
O2268       O  0.54164370  0.40253209  0.54606563    -1.23700
O2269       O  0.81942457  0.24361719  0.89294815    -0.86000
O2270       O  0.79208018  0.20373884  0.92972495    -0.83000
C2271       C  0.78858546  0.18568505  0.95154015     0.97500
O2272       O  0.80743056  0.17163732  0.96037023    -0.83100
O2273       O  0.83544771  0.15085466  0.90250958    -0.85700
C2274       C  0.84869452  0.15230712  0.87445977     1.02000
O2275       O  0.86332919  0.17115168  0.86886378    -0.78500
O2276       O  0.83644258  0.21527751  0.85782155    -0.78700
C2277       C  0.82682435  0.23715088  0.86251060     1.01900
O2278       O  0.85162199  0.24843582  0.95157463    -0.86000
O2279       O  0.82191559  0.21446535  0.98834558    -0.83100
C2280       C  0.83817842  0.19907871  0.50933316     0.97500
O2281       O  0.85177729  0.18143364  0.49546616    -0.83100
O2282       O  0.88171170  0.16281173  0.93770429    -0.85700
C2283       C  0.90038542  0.17656411  0.92836212     1.02000
O2284       O  0.89686751  0.19819471  0.91461736    -0.78500
O2285       O  0.87191815  0.24351034  0.90104597    -0.78700
C2286       C  0.86785020  0.25605457  0.92922014     1.01900
Cr2287     Cr  0.82274660  0.22538501  0.93895117     1.93700
Cr2288     Cr  0.84469406  0.17064500  0.94624575     1.93200
Cr2289     Cr  0.86535876  0.20656111  0.88841393     1.39100
O2290       O  0.84431118  0.20073274  0.92430832    -1.23700
O2291       O  0.67009805  0.23920472  0.61237109    -0.86000
O2292       O  0.69873551  0.20072388  0.57572220    -0.83000
C2293       C  0.70318962  0.18269986  0.55391214     0.97500
O2294       O  0.68507614  0.16799226  0.54464824    -0.83100
O2295       O  0.65475310  0.14976696  0.60225858    -0.85700
C2296       C  0.63892325  0.15116531  0.62776913     1.02000
O2297       O  0.62185170  0.16859474  0.62850292    -0.78500
O2298       O  0.64891104  0.21204639  0.64496734    -0.78700
C2299       C  0.66070766  0.23293863  0.64173803     1.01900
O2300       O  0.64092332  0.24665573  0.55128193    -0.86000
O2301       O  0.67065947  0.21169114  0.51528449    -0.83100
C2302       C  0.65676860  0.19985354  0.00149257     0.97500
O2303       O  0.63942673  0.18363648  0.50985979    -0.83100
O2304       O  0.60962966  0.16069900  0.56148397    -0.85700
C2305       C  0.59108412  0.17652428  0.56285990     1.02000
O2306       O  0.59422676  0.19832448  0.57662135    -0.78500
O2307       O  0.61818698  0.24194551  0.59929092    -0.78700
C2308       C  0.62453969  0.25520475  0.57302332     1.01900
Cr2309     Cr  0.66856841  0.22247574  0.56504530     1.93700
Cr2310     Cr  0.64730447  0.16757315  0.55643731     1.93200
Cr2311     Cr  0.62261611  0.20457299  0.60977579     1.39100
O2312       O  0.64635479  0.19822930  0.57726464    -1.23700
O2313       O  0.03419692  0.08927455  0.52494161    -0.86000
O2314       O  0.08140458  0.10991684  0.51164979    -0.83000
C2315       C  0.09890253  0.09311938  0.50742074     0.97500
O2316       O  0.09593133  0.07898701  0.98326846    -0.83100
O2317       O  0.07526599  0.05250200  0.92301502    -0.85700
C2318       C  0.05836938  0.03578845  0.92998781     1.02000
O2319       O  0.03990242  0.04172739  0.95056326    -0.78500
O2320       O  0.00289864  0.07444952  0.98672529    -0.78700
C2321       C  0.01269577  0.07904220  0.51994589     1.01900
O2322       O  0.00871201  0.12698423  0.97665060    -0.86000
O2323       O  0.05635056  0.14531249  0.96139286    -0.83100
C2324       C  0.07935503  0.14643031  0.95148111     0.97500
O2325       O  0.09192462  0.12591001  0.94608607    -0.83100
O2326       O  0.06617388  0.10105941  0.89043351    -0.85700
C2327       C  0.04838567  0.08855776  0.87542457     1.02000
O2328       O  0.03501929  0.07279050  0.89218230    -0.78500
O2329       O  0.00287373  0.10635943  0.92681967    -0.78700
C2330       C  0.99619189  0.12357385  0.94866136     1.01900
Cr2331     Cr  0.04409195  0.11667067  0.99061661     1.93700
Cr2332     Cr  0.07993351  0.08970808  0.93736361     1.93200
Cr2333     Cr  0.02246339  0.07509180  0.94091420     1.39100
O2334       O  0.04889501  0.09354052  0.95668565    -1.23700
O2335       O  0.01642270  0.88709729  0.73485602    -0.86000
O2336       O  0.06774541  0.89862333  0.73072183    -0.83000
C2337       C  0.09096808  0.90196911  0.73855355     0.97500
O2338       O  0.09750054  0.90277302  0.77111589    -0.83100
O2339       O  0.06941259  0.94268135  0.80975901    -0.85700
C2340       C  0.05014191  0.95292932  0.82523814     1.02000
O2341       O  0.02901258  0.94088794  0.82628215    -0.78500
O2342       O  0.00592699  0.92247014  0.76328206    -0.78700
C2343       C  0.00214675  0.90668245  0.73827299     1.01900
O2344       O  0.02692508  0.84719031  0.78321136    -0.86000
O2345       O  0.07922408  0.85555335  0.77338865    -0.83100
C2346       C  0.08677305  0.85168995  0.80436749     0.97500
O2347       O  0.08250593  0.86829478  0.82813560    -0.83100
O2348       O  0.05820034  0.90958765  0.86511333    -0.85700
C2349       C  0.03601442  0.90195863  0.87377704     1.02000
O2350       O  0.02375694  0.88894172  0.85212005    -0.78500
O2351       O  0.99672425  0.87522708  0.79603132    -0.78700
C2352       C  0.00396338  0.85229420  0.79175044     1.01900
Cr2353     Cr  0.04766892  0.87392170  0.75808772     1.93700
Cr2354     Cr  0.07504665  0.90491552  0.81641117     1.93200
Cr2355     Cr  0.01617175  0.90659173  0.80847616     1.39100
O2356       O  0.04638640  0.89605708  0.79344104    -1.23700
O2357       O  0.17428938  0.25638497  0.89059645    -0.86000
O2358       O  0.20610435  0.29499104  0.92495490    -0.83000
C2359       C  0.21171909  0.31272042  0.94684663     0.97500
O2360       O  0.19414095  0.32822558  0.95648373    -0.83100
O2361       O  0.16409229  0.34816629  0.89861126    -0.85700
C2362       C  0.14796966  0.34682050  0.87340348     1.02000
O2363       O  0.13076945  0.32964821  0.87297996    -0.78500
O2364       O  0.15127265  0.28220074  0.85820040    -0.78700
C2365       C  0.16274037  0.26107505  0.86211887     1.01900
O2366       O  0.14676999  0.25213935  0.95344091    -0.86000
O2367       O  0.17826066  0.28679014  0.98627213    -0.83100
C2368       C  0.15812069  0.29707222  0.50589539     0.97500
O2369       O  0.14400369  0.31435383  0.49239790    -0.83100
O2370       O  0.11972408  0.34262033  0.94050113    -0.85700
C2371       C  0.09942725  0.32961911  0.93821778     1.02000
O2372       O  0.10087093  0.30645869  0.92873185    -0.78500
O2373       O  0.11998332  0.25928887  0.91011996    -0.78700
C2374       C  0.12742483  0.24578999  0.93556572     1.01900
Cr2375     Cr  0.17479709  0.27489689  0.93715850     1.93700
Cr2376     Cr  0.15636199  0.33123612  0.94525464     1.93200
Cr2377     Cr  0.12786593  0.29497176  0.89506212     1.39100
O2378       O  0.15331865  0.30032415  0.92510382    -1.23700
O2379       O  0.31659811  0.26340471  0.63164743    -0.86000
O2380       O  0.29882208  0.28102420  0.56352485    -0.83000
C2381       C  0.29123277  0.30387418  0.55723581     0.97500
O2382       O  0.30458080  0.32295458  0.56739750    -0.83100
O2383       O  0.34740897  0.34887566  0.59896362    -0.85700
C2384       C  0.34622392  0.34699348  0.63256894     1.02000
O2385       O  0.34637262  0.32510333  0.64653144    -0.78500
O2386       O  0.35329382  0.27315654  0.65513969    -0.78700
C2387       C  0.33333800  0.25985543  0.65529748     1.01900
O2388       O  0.36093648  0.24408368  0.59857598    -0.86000
O2389       O  0.34659380  0.26228722  0.53673829    -0.83100
C2390       C  0.34337608  0.27769775  0.00803703     0.97500
O2391       O  0.33561525  0.29968463  0.51666001    -0.83100
O2392       O  0.38014917  0.32022862  0.54752784    -0.85700
C2393       C  0.39706813  0.32434178  0.57058512     1.02000
O2394       O  0.39024346  0.32517211  0.60227129    -0.78500
O2395       O  0.39220336  0.27215016  0.60417168    -0.78700
C2396       C  0.38452744  0.24932434  0.59960272     1.01900
Cr2397     Cr  0.33133399  0.26531754  0.58331955     1.93700
Cr2398     Cr  0.34252543  0.32133283  0.56010435     1.93200
Cr2399     Cr  0.36865229  0.29884421  0.62465210     1.39100
O2400       O  0.34660138  0.29528228  0.58987210    -1.23700
O2401       O  0.01331675  0.56895244  0.51554720    -0.86000
O2402       O  0.05164859  0.53840900  0.55022856    -0.83000
C2403       C  0.07084927  0.53359036  0.56954501     0.97500
O2404       O  0.08774314  0.55072299  0.57379063    -0.83100
O2405       O  0.10344271  0.58043046  0.51340249    -0.85700
C2406       C  0.10420731  0.59854099  0.99252102     1.02000
O2407       O  0.08872963  0.61695860  0.99760100    -0.78500
O2408       O  0.04329634  0.59353609  0.98318028    -0.78700
C2409       C  0.02311774  0.58057835  0.98669795     1.01900
O2410       O  0.00944428  0.59943560  0.57687311    -0.86000
O2411       O  0.04513710  0.56882633  0.60966226    -0.83100
C2412       C  0.06071352  0.58239058  0.62677234     0.97500
O2413       O  0.07768260  0.59592267  0.61158053    -0.83100
O2414       O  0.09864460  0.62598854  0.55695670    -0.85700
C2415       C  0.08426102  0.64573193  0.55621565     1.02000
O2416       O  0.06101439  0.64336078  0.54829775    -0.78500
O2417       O  0.01486588  0.62307572  0.53017937    -0.78700
C2418       C  0.00175576  0.61694198  0.55656135     1.01900
Cr2419     Cr  0.03224926  0.57049478  0.56129999     1.93700
Cr2420     Cr  0.08938558  0.58836863  0.56218236     1.93200
Cr2421     Cr  0.05057494  0.61582594  0.51539270     1.39100
O2422       O  0.05728465  0.59129899  0.54627948    -1.23700
O2423       O  0.01748126  0.42319385  0.73976583    -0.86000
O2424       O  0.05616894  0.45159183  0.70187479    -0.83000
C2425       C  0.07392438  0.45523245  0.67947666     0.97500
O2426       O  0.08823696  0.43651897  0.67082495    -0.83100
O2427       O  0.10725665  0.40582892  0.72850460    -0.85700
C2428       C  0.10566461  0.38988685  0.75380054     1.02000
O2429       O  0.08726876  0.37408989  0.75544925    -0.78500
O2430       O  0.04172454  0.39837637  0.77220428    -0.78700
C2431       C  0.02194751  0.41214413  0.76860938     1.01900
O2432       O  0.00915053  0.39440558  0.67842869    -0.86000
O2433       O  0.04404363  0.42287754  0.64254101    -0.83100
C2434       C  0.05490642  0.40622834  0.62352423     0.97500
O2435       O  0.07190766  0.39120679  0.63592401    -0.83100
O2436       O  0.09739099  0.36155659  0.68731677    -0.85700
C2437       C  0.08326709  0.34214018  0.69088131     1.02000
O2438       O  0.06061695  0.34521420  0.70180070    -0.78500
O2439       O  0.01527292  0.36831213  0.72257790    -0.78700
C2440       C  0.00136072  0.37661701  0.69802202     1.01900
Cr2441     Cr  0.03405063  0.42119852  0.69232170     1.93700
Cr2442     Cr  0.08878683  0.39892472  0.68261748     1.93200
Cr2443     Cr  0.05191671  0.37362850  0.73517044     1.39100
O2444       O  0.05824291  0.39822845  0.70394646    -1.23700
O2445       O  0.97625813  0.92878771  0.52080570    -0.86000
O2446       O  0.93678759  0.95703528  0.55722729    -0.83000
C2447       C  0.91775248  0.96106669  0.57750243     0.97500
O2448       O  0.90169882  0.94319756  0.58253514    -0.83100
O2449       O  0.88523020  0.91527151  0.52042454    -0.85700
C2450       C  0.88792925  0.89997977  0.49428857     1.02000
O2451       O  0.90937343  0.88100198  0.99744176    -0.78500
O2452       O  0.95321565  0.90802699  0.98696727    -0.78700
C2453       C  0.97266661  0.92183004  0.99202782     1.01900
O2454       O  0.97931399  0.89584286  0.57996461    -0.86000
O2455       O  0.94381122  0.92580673  0.61514710    -0.83100
C2456       C  0.93048699  0.90950566  0.63106613     0.97500
O2457       O  0.91398067  0.89594116  0.61502319    -0.83100
O2458       O  0.89305209  0.86837037  0.55825595    -0.85700
C2459       C  0.90823572  0.84939213  0.55458698     1.02000
O2460       O  0.93118290  0.85298604  0.54552939    -0.78500
O2461       O  0.97627494  0.87679971  0.52887681    -0.78700
C2462       C  0.98796147  0.87998151  0.55751139     1.01900
Cr2463     Cr  0.95699694  0.92543290  0.56655814     1.93700
Cr2464     Cr  0.90075941  0.90586035  0.56744617     1.93200
Cr2465     Cr  0.93991095  0.88276201  0.51592970     1.39100
O2466       O  0.93249266  0.90495007  0.54989382    -1.23700
O2467       O  0.98119441  0.07442515  0.73670291    -0.86000
O2468       O  0.93944574  0.04582150  0.70572194    -0.83000
C2469       C  0.92092980  0.04144770  0.68492400     0.97500
O2470       O  0.90667069  0.05997192  0.67560521    -0.83100
O2471       O  0.88919363  0.09059856  0.73332085    -0.85700
C2472       C  0.89194229  0.10552250  0.75972661     1.02000
O2473       O  0.91086277  0.12067796  0.76209375    -0.78500
O2474       O  0.95734499  0.09723251  0.77265023    -0.78700
C2475       C  0.97764923  0.08482997  0.76642559     1.01900
O2476       O  0.98421630  0.10261766  0.67490521    -0.86000
O2477       O  0.94778591  0.07275295  0.64371611    -0.83100
C2478       C  0.93824862  0.09061570  0.62605104     0.97500
O2479       O  0.92214891  0.10608519  0.63994890    -0.83100
O2480       O  0.89767293  0.13508236  0.69354849    -0.85700
C2481       C  0.91159901  0.15445894  0.69876523     1.02000
O2482       O  0.93436362  0.15159627  0.70869287    -0.78500
O2483       O  0.98058999  0.12865849  0.72078515    -0.78700
C2484       C  0.99240940  0.12099426  0.69349966     1.01900
Cr2485     Cr  0.96100798  0.07558707  0.69208529     1.93700
Cr2486     Cr  0.90635074  0.09783091  0.68715537     1.93200
Cr2487     Cr  0.94504833  0.12248975  0.73840024     1.39100
O2488       O  0.93744408  0.09850068  0.70652412    -1.23700
O2489       O  0.84396367  0.70538852  0.63869299    -0.86000
O2490       O  0.86893262  0.66064248  0.62405018    -0.83000
C2491       C  0.85292909  0.64240006  0.62283114     0.97500
O2492       O  0.83688687  0.64072665  0.59746650    -0.83100
O2493       O  0.80597435  0.66037098  0.53876105    -0.85700
C2494       C  0.78812431  0.67554231  0.54883773     1.02000
O2495       O  0.79332755  0.69251186  0.57182144    -0.78500
O2496       O  0.82225128  0.73217982  0.60646695    -0.78700
C2497       C  0.83299259  0.72670973  0.63518060     1.01900
O2498       O  0.87543511  0.73266911  0.59014594    -0.86000
O2499       O  0.89783333  0.68692514  0.57059248    -0.83100
C2500       C  0.90087289  0.66386907  0.56135955     0.97500
O2501       O  0.88148853  0.64965125  0.55712701    -0.83100
O2502       O  0.85301046  0.67525437  0.50471124    -0.85700
C2503       C  0.84041967  0.69272690  0.99006808     1.02000
O2504       O  0.82109441  0.70272320  0.51025952    -0.78500
O2505       O  0.85040473  0.73808112  0.54457842    -0.78700
C2506       C  0.86795681  0.74609257  0.56451324     1.01900
Cr2507     Cr  0.86964062  0.69585819  0.60331213     1.93700
Cr2508     Cr  0.84412986  0.65870225  0.55112411     1.93200
Cr2509     Cr  0.82324410  0.71413908  0.55974089     1.39100
O2510       O  0.84553004  0.68956864  0.57178459    -1.23700
O2511       O  0.64197776  0.72628304  0.86014317    -0.86000
O2512       O  0.64787287  0.67315619  0.85605026    -0.83000
C2513       C  0.64837149  0.64974798  0.86480046     0.97500
O2514       O  0.64883669  0.64384237  0.89753779    -0.83100
O2515       O  0.69111279  0.66620206  0.93747017    -0.85700
C2516       C  0.70398272  0.68437713  0.95141869     1.02000
O2517       O  0.69525960  0.70723035  0.95030146    -0.78500
O2518       O  0.67902796  0.73131616  0.88596486    -0.78700
C2519       C  0.66304347  0.73788032  0.86259768     1.01900
O2520       O  0.60256776  0.72072039  0.91044409    -0.86000
O2521       O  0.60431258  0.66801055  0.89894702    -0.83100
C2522       C  0.59819257  0.66241297  0.92990139     0.97500
O2523       O  0.61496713  0.66387563  0.95370149    -0.83100
O2524       O  0.65244461  0.68434519  0.48875807    -0.85700
C2525       C  0.64529672  0.70649559  0.49889993     1.02000
O2526       O  0.64704745  0.72235774  0.97869689    -0.78500
O2527       O  0.63393804  0.74762094  0.92148107    -0.78700
C2528       C  0.61030608  0.74262708  0.92040456     1.01900
Cr2529     Cr  0.62610623  0.69684217  0.88398175     1.93700
Cr2530     Cr  0.65266580  0.66616710  0.94254537     1.93200
Cr2531     Cr  0.66316352  0.72448627  0.93274498     1.39100
O2532       O  0.64812761  0.69562419  0.91928502    -1.23700
O2533       O  0.44514959  0.89954408  0.76825378    -0.86000
O2534       O  0.40610219  0.87416172  0.73684608    -0.83000
C2535       C  0.38940858  0.89182357  0.73942637     0.97500
O2536       O  0.38876063  0.90964036  0.71657400    -0.83100
O2537       O  0.40903110  0.94607868  0.66863061    -0.85700
C2538       C  0.42018150  0.96421156  0.68446829     1.02000
O2539       O  0.43507191  0.95885193  0.70985224    -0.78500
O2540       O  0.47141031  0.92882999  0.74900890    -0.78700
C2541       C  0.46442810  0.91352316  0.77260319     1.01900
O2542       O  0.48148720  0.87661122  0.72084744    -0.86000
O2543       O  0.44236025  0.85429010  0.68507779    -0.83100
C2544       C  0.42150189  0.85125977  0.66926152     0.97500
O2545       O  0.40577244  0.86981918  0.66811043    -0.83100
O2546       O  0.43378390  0.90687267  0.62875391    -0.85700
C2547       C  0.45142183  0.92369995  0.62525211     1.02000
O2548       O  0.45660855  0.93885267  0.64983816    -0.78500
O2549       O  0.49105596  0.90883651  0.68613503    -0.78700
C2550       C  0.49722782  0.88811220  0.70124919     1.01900
Cr2551     Cr  0.44340780  0.87840209  0.72563641     1.93700
Cr2552     Cr  0.41110446  0.90787084  0.67262363     1.93200
Cr2553     Cr  0.46146315  0.93183334  0.69925158     1.39100
O2554       O  0.43893270  0.90610258  0.69923885    -1.23700
O2555       O  0.47286685  0.09977089  0.98556215    -0.86000
O2556       O  0.42045779  0.10075786  0.98854906    -0.83000
C2557       C  0.39407534  0.09881998  0.49632700     0.97500
O2558       O  0.39049697  0.09917923  0.52969022    -0.83100
O2559       O  0.41446882  0.05637178  0.56428122    -0.85700
C2560       C  0.43255100  0.04338984  0.57775416     1.02000
O2561       O  0.45553344  0.05044185  0.57271200    -0.78500
O2562       O  0.47393637  0.06476960  0.50355667    -0.78700
C2563       C  0.48292608  0.07768365  0.98631876     1.01900
O2564       O  0.47071280  0.14202967  0.53004969    -0.86000
O2565       O  0.41766395  0.14494925  0.52939357    -0.83100
C2566       C  0.41573302  0.14956812  0.56185297     0.97500
O2567       O  0.41655214  0.13126936  0.58308244    -0.83100
O2568       O  0.43591312  0.08964484  0.61534434    -0.85700
C2569       C  0.45911454  0.09534205  0.62093567     1.02000
O2570       O  0.47468166  0.09799888  0.59606924    -0.78500
O2571       O  0.49598541  0.10849099  0.53457061    -0.78700
C2572       C  0.49293733  0.13252965  0.53365381     1.01900
Cr2573     Cr  0.44295924  0.12064412  0.50801988     1.93700
Cr2574     Cr  0.41606006  0.09440440  0.57035563     1.93200
Cr2575     Cr  0.47236420  0.08117125  0.55082559     1.39100
O2576       O  0.44348349  0.09800111  0.54253203    -1.23700
O2577       O  0.33924010  0.19939022  0.89171673    -0.86000
O2578       O  0.36660030  0.15553594  0.88228546    -0.83000
C2579       C  0.35009636  0.13784870  0.88310860     0.97500
O2580       O  0.33492951  0.13438239  0.85729104    -0.83100
O2581       O  0.30596390  0.14929073  0.79600162    -0.85700
C2582       C  0.28778222  0.16484807  0.80278847     1.02000
O2583       O  0.29188599  0.18377665  0.82310861    -0.78500
O2584       O  0.31847826  0.22467649  0.85575791    -0.78700
C2585       C  0.32536639  0.21880144  0.88637516     1.01900
O2586       O  0.37175893  0.22601558  0.84401583    -0.86000
O2587       O  0.39638559  0.17986454  0.82874770    -0.83100
C2588       C  0.40006110  0.15640796  0.82155686     0.97500
O2589       O  0.38098788  0.14163751  0.81768029    -0.83100
O2590       O  0.35246060  0.16242751  0.76146299    -0.85700
C2591       C  0.33803318  0.17860858  0.74616421     1.02000
O2592       O  0.32091847  0.19077828  0.76269699    -0.78500
O2593       O  0.34946241  0.22931046  0.79546790    -0.78700
C2594       C  0.36584385  0.23835843  0.81670073     1.01900
Cr2595     Cr  0.36668727  0.18958955  0.85887443     1.93700
Cr2596     Cr  0.34344667  0.14925517  0.80955048     1.93200
Cr2597     Cr  0.32191187  0.20507855  0.81073882     1.39100
O2598       O  0.34399793  0.18139406  0.82634254    -1.23700
O2599       O  0.15549635  0.19915984  0.60456305    -0.86000
O2600       O  0.12998197  0.15457183  0.61783987    -0.83000
C2601       C  0.14542749  0.13589625  0.62132558     0.97500
O2602       O  0.15996253  0.13439551  0.64809374    -0.83100
O2603       O  0.18839845  0.15423919  0.70643109    -0.85700
C2604       C  0.20713483  0.16819645  0.69747601     1.02000
O2605       O  0.20354578  0.18626433  0.67569134    -0.78500
O2606       O  0.17559593  0.22600688  0.63865040    -0.78700
C2607       C  0.16602702  0.22056601  0.60902184     1.01900
O2608       O  0.12190171  0.22696558  0.65089803    -0.86000
O2609       O  0.09873514  0.18215203  0.66825437    -0.83100
C2610       C  0.09513044  0.15969708  0.67901751     0.97500
O2611       O  0.11411093  0.14532706  0.68526275    -0.83100
O2612       O  0.14146456  0.17098214  0.73878511    -0.85700
C2613       C  0.15604049  0.18778960  0.75247247     1.02000
O2614       O  0.17389050  0.19764137  0.73496146    -0.78500
O2615       O  0.14505254  0.23282904  0.69856833    -0.78700
C2616       C  0.12789654  0.24025458  0.67754541     1.01900
Cr2617     Cr  0.12839545  0.19011684  0.63806372     1.93700
Cr2618     Cr  0.15115787  0.15356287  0.69294299     1.93200
Cr2619     Cr  0.17299427  0.20841179  0.68531033     1.39100
O2620       O  0.15103621  0.18399300  0.67170556    -1.23700
O2621       O  0.51937314  0.93809860  0.98108659    -0.86000
O2622       O  0.53900540  0.93858367  0.91236474    -0.83000
C2623       C  0.56192247  0.94647889  0.91058456     0.97500
O2624       O  0.57929543  0.93434963  0.92727864    -0.83100
O2625       O  0.60002842  0.89446864  0.97329811    -0.85700
C2626       C  0.59781293  0.89530454  0.50407676     1.02000
O2627       O  0.57554333  0.89779278  0.51677247    -0.78500
O2628       O  0.52437256  0.90752592  0.52033649    -0.78700
C2629       C  0.51946979  0.93105345  0.51516451     1.01900
O2630       O  0.49378242  0.89209646  0.96625900    -0.86000
O2631       O  0.51829599  0.88795923  0.90421369    -0.83100
C2632       C  0.53378824  0.88937598  0.87914656     0.97500
O2633       O  0.55691854  0.89569834  0.88441014    -0.83100
O2634       O  0.57384924  0.85775989  0.92751620    -0.85700
C2635       C  0.57311250  0.84249958  0.95302946     1.02000
O2636       O  0.56852329  0.85095058  0.98363585    -0.78500
O2637       O  0.51632039  0.85816860  0.97919091    -0.78700
C2638       C  0.49492754  0.86847192  0.97275524     1.01900
Cr2639     Cr  0.51998574  0.91323668  0.94188876     1.93700
Cr2640     Cr  0.57578187  0.89574741  0.93070991     1.93200
Cr2641     Cr  0.54515813  0.88006594  0.99686832     1.39100
O2642       O  0.54755112  0.89724873  0.95721230    -1.23700
O2643       O  0.51896456  0.07226436  0.76332165    -0.86000
O2644       O  0.55798732  0.04075819  0.79287701    -0.83000
C2645       C  0.57501353  0.03354879  0.81436124     0.97500
O2646       O  0.59025619  0.05028670  0.82656730    -0.83100
O2647       O  0.60805264  0.08572655  0.77333968    -0.85700
C2648       C  0.60635351  0.10409280  0.75142802     1.02000
O2649       O  0.58949785  0.12134581  0.75554508    -0.78500
O2650       O  0.54686502  0.09568426  0.73555135    -0.78700
C2651       C  0.52604349  0.08374443  0.73587223     1.01900
O2652       O  0.51107261  0.09539438  0.82955761    -0.86000
O2653       O  0.54661021  0.06243914  0.85875819    -0.83100
C2654       C  0.55814667  0.07670797  0.88024636     0.97500
O2655       O  0.57544234  0.09222552  0.86991192    -0.83100
O2656       O  0.59900084  0.12738105  0.82255722    -0.85700
C2657       C  0.58418706  0.14687782  0.82171980     1.02000
O2658       O  0.56124669  0.14404104  0.81252153    -0.78500
O2659       O  0.51698182  0.12291156  0.78696880    -0.78700
C2660       C  0.50346834  0.11451214  0.81194726     1.01900
Cr2661     Cr  0.53577255  0.06932211  0.81018026     1.93700
Cr2662     Cr  0.59112412  0.08908055  0.82148439     1.93200
Cr2663     Cr  0.55408486  0.11889729  0.77489157     1.39100
O2664       O  0.56018155  0.09246568  0.80246883    -1.23700
O2665       O  0.84199093  0.29258400  0.61127704    -0.86000
O2666       O  0.86687124  0.33828622  0.62329849    -0.83000
C2667       C  0.85120795  0.35700057  0.62388400     0.97500
O2668       O  0.83488406  0.35946602  0.64884288    -0.83100
O2669       O  0.80345558  0.34200729  0.70719186    -0.85700
C2670       C  0.78569377  0.32645785  0.69877201     1.02000
O2671       O  0.79090267  0.30788687  0.67799380    -0.78500
O2672       O  0.82090489  0.26715413  0.64646592    -0.78700
C2673       C  0.83088049  0.27156068  0.61678635     1.01900
O2674       O  0.87309343  0.26758170  0.66144713    -0.86000
O2675       O  0.89529360  0.31336122  0.67839504    -0.83100
C2676       C  0.89831501  0.33636933  0.68763491     0.97500
O2677       O  0.87914019  0.35125261  0.69023271    -0.83100
O2678       O  0.84991735  0.32808286  0.74354558    -0.85700
C2679       C  0.83535201  0.31144005  0.75731861     1.02000
O2680       O  0.81793952  0.30106644  0.73975820    -0.78500
O2681       O  0.84931749  0.26435114  0.70903126    -0.78700
C2682       C  0.86659197  0.25562786  0.68878133     1.01900
Cr2683     Cr  0.86736870  0.30372789  0.64608220     1.93700
Cr2684     Cr  0.84165588  0.34290752  0.69594912     1.93200
Cr2685     Cr  0.82131065  0.28719380  0.69167660     1.39100
O2686       O  0.84315051  0.31134958  0.67730480    -1.23700
O2687       O  0.65120271  0.29357685  0.89805942    -0.86000
O2688       O  0.62490072  0.33797315  0.88418587    -0.83000
C2689       C  0.63980014  0.35686450  0.87949677     0.97500
O2690       O  0.65431455  0.35798378  0.85260738    -0.83100
O2691       O  0.68213269  0.33828283  0.79301710    -0.85700
C2692       C  0.70148889  0.32482841  0.80135048     1.02000
O2693       O  0.69881156  0.30700182  0.82377056    -0.78500
O2694       O  0.67293917  0.26742280  0.86399996    -0.78700
C2695       C  0.66286363  0.27259354  0.89354274     1.01900
O2696       O  0.61820236  0.26484436  0.85340746    -0.86000
O2697       O  0.59356357  0.30939187  0.83536721    -0.83100
C2698       C  0.58923035  0.33188943  0.82511121     0.97500
O2699       O  0.60786359  0.34650996  0.81830644    -0.83100
O2700       O  0.63488355  0.32089177  0.76418598    -0.85700
C2701       C  0.64968810  0.30427702  0.75028839     1.02000
O2702       O  0.66768565  0.29413036  0.76724886    -0.78500
O2703       O  0.64156680  0.25841755  0.80593843    -0.78700
C2704       C  0.62512133  0.25064884  0.82788420     1.01900
Cr2705     Cr  0.62377089  0.30205458  0.86497174     1.93700
Cr2706     Cr  0.64506479  0.33850380  0.80885996     1.93200
Cr2707     Cr  0.66862383  0.28407916  0.81691877     1.39100
O2708       O  0.64604875  0.30819893  0.83067289    -1.23700
O2709       O  0.48167278  0.57885216  0.98321704    -0.86000
O2710       O  0.44415593  0.54868685  0.94549436    -0.83000
C2711       C  0.42605001  0.54402626  0.92410353     0.97500
O2712       O  0.41166942  0.56233294  0.91448801    -0.83100
O2713       O  0.39081945  0.58922011  0.97313866    -0.85700
C2714       C  0.39156204  0.60340558  0.00049662     1.02000
O2715       O  0.40816714  0.62295523  0.49983909    -0.78500
O2716       O  0.45463581  0.60101377  0.51366967    -0.78700
C2717       C  0.47536323  0.58902706  0.50879965     1.01900
O2718       O  0.48692830  0.60982150  0.92436000    -0.86000
O2719       O  0.45380083  0.57937340  0.88709156    -0.83100
C2720       C  0.44213535  0.59589141  0.86917005     0.97500
O2721       O  0.42478819  0.61006067  0.88283475    -0.83100
O2722       O  0.39697542  0.63601875  0.93690170    -0.85700
C2723       C  0.40941527  0.65625161  0.94337869     1.02000
O2724       O  0.43231727  0.65444400  0.95355485    -0.78500
O2725       O  0.47964437  0.63374968  0.97140926    -0.78700
C2726       C  0.49379438  0.62709680  0.94585997     1.01900
Cr2727     Cr  0.46422481  0.58073579  0.93670716     1.93700
Cr2728     Cr  0.40850011  0.59954884  0.92860306     1.93200
Cr2729     Cr  0.44333238  0.62534301  0.98372464     1.39100
O2730       O  0.43874875  0.60171570  0.95014994    -1.23700
O2731       O  0.47680013  0.42064562  0.77720535    -0.86000
O2732       O  0.43618869  0.45054940  0.80732162    -0.83000
C2733       C  0.41765322  0.45636612  0.82747675     0.97500
O2734       O  0.40113759  0.43924245  0.83463686    -0.83100
O2735       O  0.38563871  0.40974185  0.77374001    -0.85700
C2736       C  0.38861793  0.39407803  0.74816815     1.02000
O2737       O  0.40553804  0.37656075  0.74942880    -0.78500
O2738       O  0.45102069  0.40072360  0.74112071    -0.78700
C2739       C  0.47199964  0.41166028  0.74700686     1.01900
O2740       O  0.47790376  0.39160245  0.83906584    -0.86000
O2741       O  0.44099016  0.42246864  0.86945693    -0.83100
C2742       C  0.42705734  0.40702669  0.88614263     0.97500
O2743       O  0.41100621  0.39264871  0.87047903    -0.83100
O2744       O  0.39009941  0.36317502  0.81387969    -0.85700
C2745       C  0.40451226  0.34340830  0.81104670     1.02000
O2746       O  0.42799863  0.34631299  0.80472167    -0.78500
O2747       O  0.47474696  0.36777190  0.79131705    -0.78700
C2748       C  0.48666051  0.37430684  0.81880645     1.01900
Cr2749     Cr  0.45578917  0.41983367  0.82164718     1.93700
Cr2750     Cr  0.39929336  0.40110387  0.82175737     1.93200
Cr2751     Cr  0.43917223  0.37468475  0.77423017     1.39100
O2752       O  0.43151246  0.39852745  0.80595700    -1.23700
C2753       C  0.39992293  0.51285031  0.88865129    -0.27000
C2754       C  0.42376149  0.51903793  0.90408079    -0.15000
C2755       C  0.44554213  0.50445482  0.89322718     0.35600
C2756       C  0.44314736  0.48525335  0.86703705    -0.26400
C2757       C  0.41940611  0.47954920  0.85115472    -0.15700
C2758       C  0.39756260  0.49322675  0.86289467     0.36700
N2759       N  0.37296525  0.48769939  0.84808330    -0.89900
H2760       H  0.38296702  0.52384502  0.89595407     0.17800
H2761       H  0.46008025  0.47430136  0.85949617     0.17800
N2762       N  0.47056578  0.50920393  0.90723984    -0.88900
H2763       H  0.36587900  0.50456929  0.83678905     0.35200
H2764       H  0.36060925  0.48261888  0.86861655     0.40300
H2765       H  0.47572142  0.52815461  0.90168010     0.39900
H2766       H  0.46986989  0.50677592  0.93452623     0.34800
C2767       C  0.55868211  0.36890591  0.82593189    -0.27000
C2768       C  0.56255327  0.34211950  0.82393702    -0.15000
C2769       C  0.54089237  0.32586954  0.82266575     0.35600
C2770       C  0.51608154  0.33662628  0.82254091    -0.26400
C2771       C  0.51240759  0.36333632  0.82453489    -0.15700
C2772       C  0.53390599  0.37956117  0.82630152     0.36700
N2773       N  0.53066650  0.40695660  0.82680070    -0.89900
H2774       H  0.57496555  0.38176385  0.82728938     0.17800
H2775       H  0.49960617  0.32406646  0.82038133     0.17800
N2776       N  0.54392669  0.29849428  0.82069175    -0.88900
H2777       H  0.54006901  0.41441377  0.80477194     0.35200
H2778       H  0.53964733  0.41420885  0.84934410     0.40300
H2779       H  0.53498095  0.29195111  0.79772795     0.39900
H2780       H  0.53437968  0.29049192  0.84222816     0.34800
C2781       C  0.75173739  0.34921754  0.73531413    -0.27000
C2782       C  0.76215550  0.32604211  0.72193694    -0.15000
C2783       C  0.75365553  0.30275970  0.73712582     0.35600
C2784       C  0.73540861  0.30305589  0.76474588    -0.26400
C2785       C  0.72473877  0.32614917  0.77782078    -0.15700
C2786       C  0.73286918  0.34949850  0.76240382     0.36700
N2787       N  0.72192435  0.37347976  0.77431466    -0.89900
H2788       H  0.75855895  0.36725764  0.72478612     0.17800
H2789       H  0.72892000  0.28487825  0.77525618     0.17800
N2790       N  0.76420161  0.27861963  0.72554467    -0.88900
H2791       H  0.72717958  0.37607644  0.80067347     0.35200
H2792       H  0.72972666  0.38883271  0.76036351     0.40300
H2793       H  0.74909708  0.26700771  0.71697320     0.39900
H2794       H  0.77271573  0.26972321  0.74719355     0.34800
C2795       C  0.61961171  0.17814329  0.81344621    -0.27000
C2796       C  0.59466590  0.17331159  0.82593795    -0.15000
C2797       C  0.57971825  0.19429570  0.83862908     0.35600
C2798       C  0.58996776  0.21918745  0.83870111    -0.26400
C2799       C  0.61467322  0.22409938  0.82543430    -0.15700
C2800       C  0.62975155  0.20321412  0.81294072     0.36700
N2801       N  0.65546416  0.20737755  0.80039358    -0.89900
H2802       H  0.63111955  0.16231242  0.80325263     0.17800
H2803       H  0.57833165  0.23493042  0.84890580     0.17800
N2804       N  0.55425504  0.19097938  0.85217595    -0.88900
H2805       H  0.66372517  0.19011881  0.79151509     0.35200
H2806       H  0.66643341  0.21355145  0.82183609     0.40300
H2807       H  0.55475442  0.17702871  0.87184600     0.39900
H2808       H  0.54234042  0.18471836  0.83182740     0.34800
C2809       C  0.59405372  0.99860152  0.85242902    -0.27000
C2810       C  0.57274965  0.00848263  0.83384224    -0.15000
C2811       C  0.54844654  0.99746644  0.84092317     0.35600
C2812       C  0.54597412  0.97820997  0.86632963    -0.26400
C2813       C  0.56705308  0.96842621  0.88543072    -0.15700
C2814       C  0.59158030  0.97865788  0.87744316     0.36700
N2815       N  0.61430287  0.96953799  0.89439759    -0.89900
H2816       H  0.61283032  0.00688706  0.84808212     0.17800
H2817       H  0.52685597  0.97092335  0.87116347     0.17800
N2818       N  0.52544381  0.00603381  0.82397572    -0.88900
H2819       H  0.61643378  0.94992368  0.88876002     0.35200
H2820       H  0.61208039  0.97205175  0.92158429     0.40300
H2821       H  0.52762292  0.00377736  0.79669773     0.39900
H2822       H  0.52201381  0.02529712  0.83022735     0.34800
C2823       C  0.44705294  0.16145389  0.81007165    -0.27000
C2824       C  0.42663479  0.14569703  0.82041526    -0.15000
C2825       C  0.43206888  0.12021941  0.83130656     0.35600
C2826       C  0.45745921  0.11078390  0.82987041    -0.26400
C2827       C  0.47768564  0.12622451  0.81805303    -0.15700
C2828       C  0.47235679  0.15198649  0.80869924     0.36700
N2829       N  0.49263124  0.16872769  0.79791777    -0.89900
H2830       H  0.44334246  0.18118543  0.80251365     0.17800
H2831       H  0.46135193  0.09105122  0.83722092     0.17800
N2832       N  0.41190297  0.10414512  0.84450081    -0.88900
H2833       H  0.49275391  0.18462806  0.81497159     0.35200
H2834       H  0.48847392  0.17529825  0.77261118     0.40300
H2835       H  0.40545457  0.11250261  0.86806847     0.39900
H2836       H  0.41899330  0.08593151  0.85092617     0.34800
C2837       C  0.23736556  0.14343526  0.73590343    -0.27000
C2838       C  0.23044907  0.16700118  0.72034120    -0.15000
C2839       C  0.24146982  0.18975928  0.73397466     0.35600
C2840       C  0.25855140  0.18863880  0.76259992    -0.26400
C2841       C  0.26547341  0.16512642  0.77813758    -0.15700
C2842       C  0.25492604  0.14223610  0.76419660     0.36700
N2843       N  0.26195526  0.11785700  0.77900122    -0.89900
H2844       H  0.22850447  0.12588208  0.72646587     0.17800
H2845       H  0.26706865  0.20636804  0.77204909     0.17800
N2846       N  0.23461115  0.21429033  0.71981805    -0.88900
H2847       H  0.25260679  0.10285279  0.76585915     0.35200
H2848       H  0.25537084  0.11771866  0.80504527     0.40300
H2849       H  0.25141192  0.22324889  0.71123680     0.39900
H2850       H  0.22665424  0.22549611  0.74013465     0.34800
C2851       C  0.36181211  0.28422057  0.79741642    -0.27000
C2852       C  0.37691601  0.26458424  0.81198515    -0.15000
C2853       C  0.40132779  0.27097960  0.82566679     0.35600
C2854       C  0.40953629  0.29680302  0.82574510    -0.26400
C2855       C  0.39406153  0.31663606  0.81233692    -0.15700
C2856       C  0.37018818  0.31003604  0.79715293     0.36700
N2857       N  0.35483370  0.32938503  0.78052086    -0.89900
H2858       H  0.34314596  0.27949441  0.78676091     0.17800
H2859       H  0.42821069  0.30149847  0.83641577     0.17800
N2860       N  0.41778470  0.25119064  0.83938156    -0.88900
H2861       H  0.33772102  0.32154712  0.77108933     0.35200
H2862       H  0.36502770  0.33563131  0.75842499     0.40300
H2863       H  0.43499047  0.25901937  0.84851673     0.39900
H2864       H  0.42259067  0.23880731  0.81850258     0.34800
C2865       C  0.36408948  0.09776437  0.91287574    -0.27000
C2866       C  0.35087190  0.12132396  0.91487994    -0.15000
C2867       C  0.34777944  0.13311648  0.94827374     0.35600
C2868       C  0.36008692  0.12287648  0.97802901    -0.26400
C2869       C  0.37656009  0.10154054  0.97489853    -0.15700
C2870       C  0.37716880  0.08783551  0.94232583     0.36700
N2871       N  0.39232024  0.06486334  0.93756198    -0.89900
H2872       H  0.36671355  0.08846837  0.88745486     0.17800
H2873       H  0.35938713  0.13368058  0.00256854     0.17800
N2874       N  0.33428519  0.15709876  0.95132239    -0.88900
H2875       H  0.37987834  0.05018143  0.92974774     0.35200
H2876       H  0.40016189  0.05888751  0.96141949     0.40300
H2877       H  0.34702541  0.17090553  0.96104259     0.39900
H2878       H  0.31958697  0.15490593  0.96986289     0.34800
C2879       C  0.51963527  0.09796985  0.95647583    -0.27000
C2880       C  0.50657620  0.07491873  0.96456549    -0.15000
C2881       C  0.51657065  0.05150018  0.95173318     0.35600
C2882       C  0.53736507  0.05212856  0.92779295    -0.26400
C2883       C  0.54801354  0.07572597  0.91641642    -0.15700
C2884       C  0.54005363  0.09862097  0.93291829     0.36700
N2885       N  0.55047878  0.12316066  0.92375249    -0.89900
H2886       H  0.51312123  0.11626381  0.96717706     0.17800
H2887       H  0.54356298  0.03435397  0.91516083     0.17800
N2888       N  0.50959560  0.03279853  0.46658937    -0.88900
H2889       H  0.54675499  0.12675548  0.89720704     0.35200
H2890       H  0.57032508  0.12254261  0.92759096     0.40300
H2891       H  0.52364350  0.02526437  0.48321819     0.39900
H2892       H  0.50782454  0.02033311  0.44498141     0.34800
C2893       C  0.49117786  0.11326684  0.65960342    -0.27000
C2894       C  0.47018900  0.09678521  0.65604124    -0.15000
C2895       C  0.46623137  0.07710735  0.68061685     0.35600
C2896       C  0.48516158  0.07251107  0.70603882    -0.26400
C2897       C  0.50769767  0.08735403  0.70704614    -0.15700
C2898       C  0.51027753  0.10837206  0.68397868     0.36700
N2899       N  0.53232647  0.12477177  0.68473524    -0.89900
H2900       H  0.49403908  0.12871738  0.64095087     0.17800
H2901       H  0.48247715  0.05710327  0.72472448     0.17800
N2902       N  0.44384302  0.06116761  0.67853715    -0.88900
H2903       H  0.52609244  0.14364750  0.68943803     0.35200
H2904       H  0.54110611  0.12407760  0.65991692     0.40300
H2905       H  0.42785833  0.07291440  0.68341141     0.39900
H2906       H  0.44406360  0.04738737  0.69843917     0.34800
C2907       C  0.44894644  0.01536836  0.62629415    -0.27000
C2908       C  0.42789431  0.02310474  0.60541745    -0.15000
C2909       C  0.40328973  0.01388996  0.61527075     0.35600
C2910       C  0.40074408  0.99661982  0.64362289    -0.26400
C2911       C  0.42193833  0.98873974  0.66402339    -0.15700
C2912       C  0.44616985  0.99897170  0.65541923     0.36700
N2913       N  0.46844040  0.99190395  0.67520034    -0.89900
H2914       H  0.46800665  0.02248675  0.62058225     0.17800
H2915       H  0.38202802  0.98850721  0.64901407     0.17800
N2916       N  0.38053283  0.02119465  0.59679740    -0.88900
H2917       H  0.47653778  0.00872188  0.68545686     0.35200
H2918       H  0.48181051  0.98357022  0.65788418     0.40300
H2919       H  0.38298098  0.01668097  0.57010820     0.39900
H2920       H  0.37781157  0.04103030  0.59972274     0.34800
C2921       C  0.48251551  0.88226987  0.81415709    -0.27000
C2922       C  0.48283866  0.90724139  0.80026559    -0.15000
C2923       C  0.50396931  0.92331920  0.80700814     0.35600
C2924       C  0.52379157  0.91465502  0.82845029    -0.26400
C2925       C  0.52227314  0.89065135  0.84462071    -0.15700
C2926       C  0.50201869  0.87384399  0.83615484     0.36700
N2927       N  0.50060173  0.84836133  0.85017806    -0.89900
H2928       H  0.46720898  0.86903307  0.80764222     0.17800
H2929       H  0.53903655  0.92784563  0.83537868     0.17800
N2930       N  0.50484261  0.94886541  0.79331500    -0.88900
H2931       H  0.49889333  0.84942744  0.87752695     0.35200
H2932       H  0.51769371  0.83870607  0.84392459     0.40300
H2933       H  0.52201766  0.95097004  0.77929959     0.39900
H2934       H  0.50489975  0.96157868  0.81469561     0.34800
C2935       C  0.49285588  0.93665062  0.60116961    -0.27000
C2936       C  0.46774938  0.92774262  0.59420775    -0.15000
C2937       C  0.45866511  0.92792117  0.55965822     0.35600
C2938       C  0.47526579  0.93578779  0.53253624    -0.26400
C2939       C  0.50106637  0.94219760  0.53959504    -0.15700
C2940       C  0.50920086  0.94452699  0.57451221     0.36700
N2941       N  0.53483853  0.95232828  0.58338361    -0.89900
H2942       H  0.50009853  0.93742683  0.62788044     0.17800
H2943       H  0.46889945  0.93417502  0.50553295     0.17800
N2944       N  0.43305133  0.91982806  0.55207615    -0.88900
H2945       H  0.53332399  0.96869780  0.59946959     0.35200
H2946       H  0.54481927  0.95810298  0.56087649     0.40300
H2947       H  0.43409776  0.90393039  0.53510038     0.39900
H2948       H  0.42371700  0.93473592  0.53890174     0.34800
C2949       C  0.55357218  0.65738541  0.90862584    -0.27000
C2950       C  0.57126342  0.65417871  0.93633054    -0.15000
C2951       C  0.56257174  0.64351749  0.96834739     0.35600
C2952       C  0.53670356  0.63591002  0.97138470    -0.26400
C2953       C  0.51966178  0.63818669  0.94293488    -0.15700
C2954       C  0.52818008  0.64945646  0.91160646     0.36700
N2955       N  0.51129893  0.65337222  0.88252337    -0.89900
H2956       H  0.55944642  0.66602277  0.88401701     0.17800
H2957       H  0.53006624  0.62721493  0.99555489     0.17800
N2958       N  0.57988731  0.64000170  0.99729476    -0.88900
H2959       H  0.49562003  0.66436493  0.89121791     0.35200
H2960       H  0.50466720  0.63542389  0.87416954     0.40300
H2961       H  0.59338168  0.62607806  0.98962721     0.39900
H2962       H  0.57017280  0.63252456  0.01906955     0.34800
C2963       C  0.57409949  0.80433929  0.91278943    -0.27000
C2964       C  0.57802028  0.81468771  0.94674322    -0.15000
C2965       C  0.58723317  0.79842175  0.97350041     0.35600
C2966       C  0.59475606  0.77319518  0.96502308    -0.26400
C2967       C  0.59283432  0.76365727  0.93049204    -0.15700
C2968       C  0.58124087  0.77885462  0.90450594     0.36700
N2969       N  0.57844362  0.76894683  0.86930938    -0.89900
H2970       H  0.56619834  0.81641021  0.89233653     0.17800
H2971       H  0.60403727  0.76165040  0.98495888     0.17800
N2972       N  0.59049555  0.80778243  0.00879121    -0.88900
H2973       H  0.57013924  0.78278767  0.85302124     0.35200
H2974       H  0.56563993  0.75355452  0.87037542     0.40300
H2975       H  0.60983379  0.80575249  0.01552159     0.39900
H2976       H  0.57104843  0.79523480  0.51926985     0.34800
C2977       C  0.73935479  0.70149111  0.98970258    -0.27000
C2978       C  0.72767480  0.67981670  0.97392792    -0.15000
C2979       C  0.73420390  0.65875574  0.48333438     0.35600
C2980       C  0.75434946  0.65638224  0.50814914    -0.26400
C2981       C  0.76430500  0.67786492  0.52641885    -0.15700
C2982       C  0.75863513  0.69935912  0.01544861     0.36700
N2983       N  0.76952138  0.72236393  0.02995517    -0.89900
H2984       H  0.73312141  0.72067980  0.98266917     0.17800
H2985       H  0.76227450  0.63747150  0.51323517     0.17800
N2986       N  0.72462422  0.63570311  0.46737210    -0.88900
H2987       H  0.75475735  0.73310392  0.04173673     0.35200
H2988       H  0.77708953  0.73314260  0.00925276     0.40300
H2989       H  0.72641353  0.63725846  0.44004110     0.39900
H2990       H  0.70524630  0.63380572  0.47402328     0.34800
C2991       C  0.90753094  0.19979298  0.71994645    -0.27000
C2992       C  0.90044583  0.18056279  0.69559176    -0.15000
C2993       C  0.88156120  0.18605370  0.67016474     0.35600
C2994       C  0.87034414  0.21062738  0.66948208    -0.26400
C2995       C  0.87738679  0.22974567  0.69376895    -0.15700
C2996       C  0.89613255  0.22440410  0.71927522     0.36700
N2997       N  0.90371173  0.24396187  0.74398804    -0.89900
H2998       H  0.92175112  0.19548886  0.73982213     0.17800
H2999       H  0.85618620  0.21505176  0.64955615     0.17800
N3000       N  0.87413233  0.16682352  0.64479099    -0.88900
H3001       H  0.91234299  0.25870628  0.72972542     0.35200
H3002       H  0.91763671  0.23687646  0.76114266     0.40300
H3003       H  0.89013918  0.16277275  0.62896362     0.39900
H3004       H  0.85991839  0.17397040  0.62808050     0.34800
C3005       C  0.03832055  0.11437365  0.68406842    -0.27000
C3006       C  0.01774236  0.13172545  0.68577345    -0.15000
C3007       C  0.02246704  0.15846958  0.68436706     0.35600
C3008       C  0.04788836  0.16709346  0.68271090    -0.26400
C3009       C  0.06865809  0.14969893  0.68207910    -0.15700
C3010       C  0.06362631  0.12301066  0.68232129     0.36700
N3011       N  0.08401315  0.10445853  0.68059285    -0.89900
H3012       H  0.03479084  0.09384841  0.68531099     0.17800
H3013       H  0.05136389  0.18762396  0.68189846     0.17800
N3014       N  0.00215692  0.17732599  0.68419085    -0.88900
H3015       H  0.08069459  0.09245578  0.65887226     0.35200
H3016       H  0.08305869  0.09315143  0.70320351     0.40300
H3017       H  0.98413658  0.16869568  0.68338266     0.39900
H3018       H  0.00375813  0.18763087  0.66075223     0.34800
C3019       C  0.90315016  0.77785022  0.57366282    -0.27000
C3020       C  0.87886074  0.77216888  0.55964659    -0.15000
C3021       C  0.86442588  0.79214626  0.54416617     0.35600
C3022       C  0.87420692  0.81722113  0.54357696    -0.26400
C3023       C  0.89839885  0.82286911  0.55763882    -0.15700
C3024       C  0.91314705  0.80294612  0.57259610     0.36700
N3025       N  0.93795134  0.80835991  0.58723976    -0.89900
H3026       H  0.91429886  0.76269311  0.58579921     0.17800
H3027       H  0.86290130  0.83233607  0.53157217     0.17800
N3028       N  0.83950349  0.78730371  0.52983302    -0.88900
H3029       H  0.94636917  0.79158551  0.59702913     0.35200
H3030       H  0.93512589  0.82066896  0.60880841     0.40300
H3031       H  0.83972525  0.79257330  0.50331181     0.39900
H3032       H  0.82624999  0.79910864  0.54305928     0.34800
C3033       C  0.94144967  0.99066656  0.61794070    -0.27000
C3034       C  0.91785276  0.98303543  0.60337223    -0.15000
C3035       C  0.89501050  0.99251658  0.61922161     0.35600
C3036       C  0.89634363  0.00997061  0.64797640    -0.26400
C3037       C  0.91999511  0.01775255  0.66229634    -0.15700
C3038       C  0.94270848  0.00753806  0.64714584     0.36700
N3039       N  0.96728760  0.01506292  0.66034572    -0.89900
H3040       H  0.95919561  0.98287351  0.60724964     0.17800
H3041       H  0.87877997  0.01816834  0.65867522     0.17800
N3042       N  0.87050268  0.98452877  0.60592149    -0.88900
H3043       H  0.97754959  0.02353952  0.63979443     0.35200
H3044       H  0.97714198  0.99844813  0.66793077     0.40300
H3045       H  0.86891148  0.99136092  0.58020204     0.39900
H3046       H  0.85560615  0.99305591  0.62048561     0.34800
C3047       C  0.07998380  0.29406694  0.69543642    -0.27000
C3048       C  0.09417573  0.31579633  0.68513352    -0.15000
C3049       C  0.11940354  0.31201131  0.67188944     0.35600
C3050       C  0.13014610  0.28723552  0.67080073    -0.26400
C3051       C  0.11616943  0.26587879  0.68190997    -0.15700
C3052       C  0.09070657  0.26911306  0.69366216     0.36700
N3053       N  0.07590158  0.24706336  0.70365138    -0.89900
H3054       H  0.06061381  0.29653406  0.70540576     0.17800
H3055       H  0.14944833  0.28460042  0.66054097     0.17800
N3056       N  0.13423528  0.33314524  0.65911922    -0.88900
H3057       H  0.05742326  0.25265525  0.71147332     0.35200
H3058       H  0.08464841  0.23894759  0.72569381     0.40300
H3059       H  0.13902193  0.32936691  0.63279512     0.39900
H3060       H  0.15127023  0.33398179  0.67352980     0.34800
C3061       C  0.96865662  0.34325191  0.71153086    -0.27000
C3062       C  0.97511484  0.36605394  0.69389803    -0.15000
C3063       C  0.95577511  0.37931183  0.67527377     0.35600
C3064       C  0.93072785  0.36958008  0.67461075    -0.26400
C3065       C  0.92450331  0.34661440  0.69170413    -0.15700
C3066       C  0.94377033  0.33335388  0.71036620     0.36700
N3067       N  0.93853436  0.31010789  0.72897503    -0.89900
H3068       H  0.98305404  0.33292001  0.72639843     0.17800
H3069       H  0.91615559  0.37982180  0.66000587     0.17800
N3070       N  0.96123188  0.40288137  0.65749211    -0.88900
H3071       H  0.93313976  0.29603317  0.71071416     0.35200
H3072       H  0.92328581  0.31350742  0.74640808     0.40300
H3073       H  0.94923700  0.41724223  0.66793788     0.39900
H3074       H  0.95669842  0.40044850  0.63087012     0.34800
C3075       C  0.09488266  0.50359875  0.60937312    -0.27000
C3076       C  0.07125307  0.51143203  0.59495748    -0.15000
C3077       C  0.04857080  0.50249546  0.61143476     0.35600
C3078       C  0.04996865  0.48604593  0.64093799    -0.26400
C3079       C  0.07364048  0.47778000  0.65481104    -0.15700
C3080       C  0.09634203  0.48687751  0.63834205     0.36700
N3081       N  0.12131552  0.47997013  0.65089496    -0.89900
H3082       H  0.11258594  0.51086594  0.59826001     0.17800
H3083       H  0.03226884  0.47893174  0.65224682     0.17800
N3084       N  0.02394366  0.51075441  0.59919461    -0.88900
H3085       H  0.12426005  0.46025569  0.64716509     0.35200
H3086       H  0.12219552  0.48426018  0.67781157     0.40300
H3087       H  0.01452456  0.52018006  0.62001323     0.39900
H3088       H  0.01334065  0.49439198  0.59262154     0.34800
C3089       C  0.93059221  0.62756319  0.57303216    -0.27000
C3090       C  0.92697092  0.65250358  0.55977949    -0.15000
C3091       C  0.94848562  0.66616256  0.54717392     0.35600
C3092       C  0.97279834  0.65457720  0.54779256    -0.26400
C3093       C  0.97642234  0.62963426  0.56115819    -0.15700
C3094       C  0.95501843  0.61607206  0.57376814     0.36700
N3095       N  0.95781176  0.59022765  0.58597193    -0.89900
H3096       H  0.91434766  0.61688309  0.58303342     0.17800
H3097       H  0.98898487  0.66506863  0.53722283     0.17800
N3098       N  0.94616683  0.69134429  0.53239133    -0.88900
H3099       H  0.95158675  0.58971334  0.61211678     0.35200
H3100       H  0.94584242  0.57838471  0.57094810     0.40300
H3101       H  0.93972902  0.70413025  0.55191069     0.39900
H3102       H  0.93266493  0.69068499  0.51210633     0.34800
C3103       C  0.38435509  0.39505309  0.68349724    -0.27000
C3104       C  0.37202663  0.39398949  0.71644212    -0.15000
C3105       C  0.34692861  0.38403503  0.71812809     0.35600
C3106       C  0.33675334  0.37112171  0.68839892    -0.26400
C3107       C  0.35062923  0.36935260  0.65653048    -0.15700
C3108       C  0.37366602  0.38335584  0.65334909     0.36700
N3109       N  0.38769695  0.38294712  0.62066797    -0.89900
H3110       H  0.40358885  0.40284497  0.68205286     0.17800
H3111       H  0.31884745  0.36076345  0.69087251     0.17800
N3112       N  0.33240910  0.38600981  0.75033821    -0.88900
H3113       H  0.40487232  0.39312724  0.62310975     0.35200
H3114       H  0.37664798  0.39274110  0.60213465     0.40300
H3115       H  0.34224062  0.37644811  0.77013876     0.39900
H3116       H  0.31462819  0.37688548  0.74756921     0.34800
C3117       C  0.33455878  0.27622449  0.94386801    -0.27000
C3118       C  0.33444118  0.26393066  0.97655542    -0.15000
C3119       C  0.32453934  0.23854856  0.97907479     0.35600
C3120       C  0.31742970  0.22547389  0.94878852    -0.26400
C3121       C  0.32096061  0.23645057  0.91583257    -0.15700
C3122       C  0.32809831  0.26255829  0.91314165     0.36700
N3123       N  0.33093230  0.27431054  0.87921495    -0.89900
H3124       H  0.34109376  0.29593309  0.94206473     0.17800
H3125       H  0.31137197  0.20561893  0.95077620     0.17800
N3126       N  0.31560594  0.22343302  0.51325731    -0.88900
H3127       H  0.33748736  0.29320851  0.88185683     0.35200
H3128       H  0.31268646  0.27546076  0.86797333     0.40300
H3129       H  0.30422499  0.23457425  0.53026154     0.39900
H3130       H  0.33327399  0.21941617  0.52494270     0.15600
C3131       C  0.31749903  0.21586578  0.67178637    -0.27000
C3132       C  0.33501514  0.23600847  0.67673417    -0.15000
C3133       C  0.35752977  0.23104001  0.69697979     0.35600
C3134       C  0.36189269  0.20674690  0.71106240    -0.26400
C3135       C  0.34256350  0.18845621  0.71098089    -0.15700
C3136       C  0.32087641  0.19224329  0.68928124     0.36700
N3137       N  0.30117725  0.17300772  0.68829940    -0.89900
H3138       H  0.30087450  0.21875574  0.65522267     0.17800
H3139       H  0.37840491  0.20414163  0.72804577     0.17800
N3140       N  0.37591632  0.25077984  0.70454718    -0.88900
H3141       H  0.30911996  0.15648005  0.67667091     0.35200
H3142       H  0.28605658  0.17887112  0.67217116     0.40300
H3143       H  0.39384264  0.24470939  0.69507350     0.39900
H3144       H  0.37719218  0.25297394  0.73187838     0.34800
C3145       C  0.39950510  0.20750106  0.61942191    -0.27000
C3146       C  0.40200323  0.22750426  0.59520891    -0.15000
C3147       C  0.41254971  0.22237568  0.56183796     0.35600
C3148       C  0.41788544  0.19686268  0.55181222    -0.26400
C3149       C  0.41264604  0.17637208  0.57476364    -0.15700
C3150       C  0.40465278  0.18200802  0.60959711     0.36700
N3151       N  0.40020067  0.16194088  0.63451333    -0.89900
H3152       H  0.39109656  0.21135189  0.64503268     0.17800
H3153       H  0.42505561  0.19305028  0.52544181     0.17800
N3154       N  0.41586431  0.24280676  0.53717090    -0.88900
H3155       H  0.38102146  0.16299332  0.64265807     0.35200
H3156       H  0.41174638  0.16541145  0.65648909     0.40300
H3157       H  0.40485771  0.23865975  0.51489049     0.39900
H3158       H  0.43516245  0.24305204  0.52952738     0.34800
C3159       C  0.26786724  0.28728656  0.00193146    -0.27000
C3160       C  0.26977384  0.30732408  0.53109398    -0.15000
C3161       C  0.25471106  0.32989595  0.52871087     0.35600
C3162       C  0.23676010  0.33254137  0.50086263    -0.26400
C3163       C  0.23585301  0.31201115  0.96903393    -0.15700
C3164       C  0.24993869  0.28898518  0.97411228     0.36700
N3165       N  0.24550462  0.26696785  0.95182697    -0.89900
H3166       H  0.27829353  0.26940465  0.00510717     0.17800
H3167       H  0.22460586  0.34949664  0.50037249     0.17800
N3168       N  0.25717343  0.34977560  0.55497322    -0.88900
H3169       H  0.25671207  0.25132018  0.95973135     0.35200
H3170       H  0.25176380  0.27167455  0.92649447     0.40300
H3171       H  0.25127384  0.34209745  0.57903327     0.39900
H3172       H  0.24473265  0.36508646  0.54962653     0.34800
C3173       C  0.12039647  0.39808995  0.81524474    -0.27000
C3174       C  0.12548773  0.38734984  0.78179123    -0.15000
C3175       C  0.14347675  0.36704351  0.77930431     0.35600
C3176       C  0.15421793  0.35641815  0.81003562    -0.26400
C3177       C  0.14711277  0.36542242  0.84372504    -0.15700
C3178       C  0.13096783  0.38730471  0.84617840     0.36700
N3179       N  0.12316248  0.39670700  0.88028301    -0.89900
H3180       H  0.10603157  0.41316134  0.81758408     0.17800
H3181       H  0.16598492  0.33922838  0.80765214     0.17800
N3182       N  0.14884609  0.35540088  0.74573520    -0.88900
H3183       H  0.11065756  0.41237525  0.87782214     0.35200
H3184       H  0.13955521  0.40356796  0.89299121     0.40300
H3185       H  0.14349473  0.33605442  0.74680554     0.39900
H3186       H  0.16866333  0.35610845  0.74147392     0.34800
C3187       C  0.13678324  0.26389630  0.53900639    -0.27000
C3188       C  0.15354771  0.28484953  0.53982526    -0.15000
C3189       C  0.17374124  0.28493308  0.56432258     0.35600
C3190       C  0.17776217  0.26361813  0.58605286    -0.26400
C3191       C  0.16238800  0.24155627  0.58314586    -0.15700
C3192       C  0.14119417  0.24212955  0.55960470     0.36700
N3193       N  0.12396167  0.22093289  0.55533843    -0.89900
H3194       H  0.12287361  0.26551840  0.01835809     0.17800
H3195       H  0.19354296  0.26407617  0.60454865     0.17800
N3196       N  0.19145286  0.30592035  0.56511105    -0.88900
H3197       H  0.11508942  0.21714680  0.57946312     0.35200
H3198       H  0.13435528  0.20479431  0.54675735     0.40300
H3199       H  0.20978410  0.29862196  0.55958859     0.39900
H3200       H  0.19159456  0.31352973  0.59068627     0.34800
C3201       C  0.13382770  0.21807286  0.79104197    -0.27000
C3202       C  0.15250677  0.19879864  0.78774271    -0.15000
C3203       C  0.17363252  0.19895174  0.81079259     0.35600
C3204       C  0.17677581  0.21933802  0.83486666    -0.26400
C3205       C  0.15941517  0.24009642  0.83574586    -0.15700
C3206       C  0.13712472  0.23875754  0.81453412     0.36700
N3207       N  0.11778301  0.25841510  0.81645169    -0.89900
H3208       H  0.11783838  0.21848208  0.77285517     0.17800
H3209       H  0.19338011  0.21936890  0.85195862     0.17800
N3210       N  0.19282972  0.17920354  0.80804774    -0.88900
H3211       H  0.10041710  0.24977703  0.82336302     0.35200
H3212       H  0.11570388  0.26631336  0.79136903     0.40300
H3213       H  0.21039421  0.18796248  0.80257903     0.39900
H3214       H  0.19432598  0.17032263  0.83256511     0.34800
C3215       C  0.97258261  0.88448028  0.69752510    -0.27000
C3216       C  0.97895841  0.90739468  0.71568341    -0.15000
C3217       C  0.96255236  0.92891296  0.71262228     0.35600
C3218       C  0.94222382  0.92782670  0.68827582    -0.26400
C3219       C  0.93787210  0.90558103  0.66765577    -0.15700
C3220       C  0.95190241  0.88326008  0.67449554     0.36700
N3221       N  0.94722735  0.86014045  0.65477037    -0.89900
H3222       H  0.98445932  0.86743833  0.69965610     0.17800
H3223       H  0.93151253  0.94522169  0.68252456     0.17800
N3224       N  0.96750729  0.95218444  0.73206637    -0.88900
H3225       H  0.96389155  0.85535373  0.64069884     0.35200
H3226       H  0.94362898  0.84538132  0.67264343     0.40300
H3227       H  0.96391437  0.94840857  0.75862401     0.39900
H3228       H  0.95452834  0.96662276  0.72491405     0.34800
C3229       C  0.03268567  0.91769403  0.93647671    -0.27000
C3230       C  0.02135555  0.91301624  0.90370295    -0.15000
C3231       C  0.99481609  0.91831846  0.89936178     0.35600
C3232       C  0.97970762  0.92471922  0.92843391    -0.26400
C3233       C  0.99027514  0.92579824  0.96209725    -0.15700
C3234       C  0.01723993  0.92394400  0.96591176     0.36700
N3235       N  0.02880065  0.92649059  0.99985733    -0.89900
H3236       H  0.05313516  0.91478503  0.93978942     0.17800
H3237       H  0.95915245  0.92683238  0.92496208     0.17800
N3238       N  0.98279132  0.91637964  0.86552064    -0.88900
H3239       H  0.04226726  0.94130804  0.99862439     0.35200
H3240       H  0.03370682  0.90138825  0.50654799     0.40300
H3241       H  0.96832452  0.90254435  0.86697570     0.39900
H3242       H  0.97419196  0.93407301  0.85986378     0.34800
C3243       C  0.14037921  0.10883682  0.53025336    -0.27000
C3244       C  0.11904999  0.09278324  0.53494331    -0.15000
C3245       C  0.11240982  0.08547681  0.56944665     0.35600
C3246       C  0.12532740  0.09628525  0.59852337    -0.26400
C3247       C  0.14389846  0.11544035  0.59388259    -0.15700
C3248       C  0.15253858  0.12064920  0.55938810     0.36700
N3249       N  0.17176357  0.13996613  0.55404450    -0.89900
H3250       H  0.14543963  0.11470750  0.50385249     0.17800
H3251       H  0.11849796  0.09217239  0.62480481     0.17800
N3252       N  0.09077892  0.06910383  0.57511332    -0.88900
H3253       H  0.17562287  0.14210849  0.52718447     0.35200
H3254       H  0.18871798  0.13333522  0.56555149     0.40300
H3255       H  0.07728848  0.07924592  0.59033561     0.39900
H3256       H  0.09696197  0.05326187  0.58964866     0.34800
C3257       C  0.07660691  0.19385795  0.94299579    -0.27000
C3258       C  0.09189595  0.17185785  0.94795987    -0.15000
C3259       C  0.11874739  0.17476806  0.95109411     0.35600
C3260       C  0.12970563  0.19928091  0.94855962    -0.26400
C3261       C  0.11449119  0.22107762  0.94232294    -0.15700
C3262       C  0.08756551  0.21824404  0.93974690     0.36700
N3263       N  0.07078402  0.23979685  0.93473718    -0.89900
H3264       H  0.05594077  0.19209556  0.94107928     0.17800
H3265       H  0.15037165  0.20113681  0.95042501     0.17800
N3266       N  0.13502094  0.15300839  0.95732706    -0.88900
H3267       H  0.07452650  0.24791532  0.91020651     0.35200
H3268       H  0.07450323  0.25339997  0.95448452     0.40300
H3269       H  0.14501491  0.15637367  0.98072853     0.39900
H3270       H  0.14841713  0.15177974  0.93679726     0.34800
C3271       C  0.07679888  0.98267346  0.86336772    -0.27000
C3272       C  0.05276458  0.97627873  0.84886325    -0.15000
C3273       C  0.03078915  0.98897613  0.86285768     0.35600
C3274       C  0.03300867  0.00650385  0.89121673    -0.26400
C3275       C  0.05689137  0.01270092  0.90598472    -0.15700
C3276       C  0.07909924  0.00082445  0.89135874     0.36700
N3277       N  0.10395620  0.00718772  0.90507143    -0.89900
H3278       H  0.09383753  0.97289186  0.85362844     0.17800
H3279       H  0.01586177  0.01628958  0.90063934     0.17800
N3280       N  0.00596213  0.98440018  0.84808604    -0.88900
H3281       H  0.11833011  0.99696731  0.89157877     0.35200
H3282       H  0.10451852  0.00112017  0.93123543     0.40300
H3283       H  0.99394499  0.97781807  0.86816572     0.39900
H3284       H  0.99862532  0.00196303  0.83929925     0.34800
C3285       C  0.97039808  0.06661627  0.54584107    -0.27000
C3286       C  0.99143412  0.08339107  0.54548870    -0.15000
C3287       C  0.98994976  0.10641256  0.56561260     0.35600
C3288       C  0.96865496  0.11117027  0.58745429    -0.26400
C3289       C  0.94902899  0.09306092  0.59062389    -0.15700
C3290       C  0.94935011  0.07106101  0.56829456     0.36700
N3291       N  0.92954800  0.05190831  0.56986772    -0.89900
H3292       H  0.97063443  0.04948971  0.52935969     0.17800
H3293       H  0.96893986  0.12776994  0.60495976     0.17800
N3294       N  0.01010670  0.12503544  0.56426601    -0.88900
H3295       H  0.92125947  0.05066413  0.54488594     0.35200
H3296       H  0.91482007  0.05765653  0.58700311     0.40300
H3297       H  0.01721919  0.12761890  0.58976465     0.39900
H3298       H  0.00220321  0.14251255  0.55608134     0.34800
C3299       C  0.00361691  0.11009436  0.80872679    -0.27000
C3300       C  0.99928173  0.08645832  0.79141181    -0.15000
C3301       C  0.01732381  0.06637055  0.79506664     0.35600
C3302       C  0.03780010  0.06949017  0.81869267    -0.26400
C3303       C  0.04034365  0.09211981  0.83895531    -0.15700
C3304       C  0.02420347  0.11319125  0.83212851     0.36700
N3305       N  0.02728060  0.13675511  0.85172125    -0.89900
H3306       H  0.99063494  0.12610752  0.80441374     0.17800
H3307       H  0.04998348  0.05310073  0.82451183     0.17800
N3308       N  0.01403900  0.04246739  0.77633519    -0.88900
H3309       H  0.01360722  0.15035564  0.84401039     0.35200
H3310       H  0.04520931  0.14428918  0.84507706     0.40300
H3311       H  0.99705878  0.03411468  0.78539314     0.39900
H3312       H  0.02888252  0.02962106  0.78226752     0.34800
C3313       C  0.54302382  0.18042769  0.56417498    -0.27000
C3314       C  0.56539054  0.16860106  0.55040569    -0.15000
C3315       C  0.56287849  0.14780843  0.52672230     0.35600
C3316       C  0.53866517  0.13778030  0.51986799    -0.26400
C3317       C  0.51644847  0.14819643  0.53553512    -0.15700
C3318       C  0.51853402  0.17024991  0.55700930     0.36700
N3319       N  0.50073918  0.17779235  0.08132567    -0.89900
H3320       H  0.54459082  0.19663656  0.58215320     0.17800
H3321       H  0.53752240  0.12066042  0.50365678     0.17800
N3322       N  0.58493201  0.13627801  0.51017621    -0.88900
H3323       H  0.49953504  0.19684452  0.07285773     0.35200
H3324       H  0.49879004  0.18056942  0.60079545     0.40300
H3325       H  0.58262932  0.13742357  0.48289730     0.39900
H3326       H  0.58551159  0.11682671  0.51694622     0.34800
C3327       C  0.67790990  0.23145495  0.92015719    -0.27000
C3328       C  0.65998051  0.25168662  0.91957797    -0.15000
C3329       C  0.63723214  0.24945222  0.93985622     0.35600
C3330       C  0.63412131  0.22860847  0.96263168    -0.26400
C3331       C  0.65337268  0.20997217  0.96599813    -0.15700
C3332       C  0.67487465  0.21065502  0.94308106     0.36700
N3333       N  0.69477040  0.19140911  0.94422231    -0.89900
H3334       H  0.69474464  0.23209172  0.90333111     0.17800
H3335       H  0.61775105  0.22848022  0.98037461     0.17800
N3336       N  0.61712100  0.26824541  0.93746058    -0.88900
H3337       H  0.69579758  0.18273605  0.91929838     0.35200
H3338       H  0.68996032  0.17677042  0.96170504     0.40300
H3339       H  0.61370607  0.27575595  0.96265838     0.39900
H3340       H  0.60044825  0.25887302  0.92924410     0.34800
C3341       C  0.66869283  0.29452224  0.69371028    -0.27000
C3342       C  0.64660082  0.29411841  0.71496353    -0.15000
C3343       C  0.62861603  0.27435143  0.71071850     0.35600
C3344       C  0.63434748  0.25380620  0.68789848    -0.26400
C3345       C  0.65751620  0.25306770  0.66874189    -0.15700
C3346       C  0.67442733  0.27403752  0.67090611     0.36700
N3347       N  0.69798970  0.27402595  0.65131891    -0.89900
H3348       H  0.68298868  0.30933725  0.69785531     0.17800
H3349       H  0.62052732  0.23844256  0.68486407     0.17800
N3350       N  0.60567431  0.27422992  0.73189393    -0.88900
H3351       H  0.71315247  0.27544384  0.66917521     0.35200
H3352       H  0.69819515  0.29043140  0.63557339     0.40300
H3353       H  0.59463510  0.25798433  0.72618400     0.39900
H3354       H  0.59468844  0.29023023  0.72475969     0.34800
C3355       C  0.64120156  0.12762740  0.72146676    -0.27000
C3356       C  0.62347476  0.10732886  0.72036174    -0.15000
C3357       C  0.61528805  0.09834078  0.68708082     0.35600
C3358       C  0.62325106  0.11089637  0.65602683    -0.26400
C3359       C  0.63908790  0.13268407  0.65754196    -0.15700
C3360       C  0.64879915  0.14044991  0.69054536     0.36700
N3361       N  0.66472302  0.16276789  0.69305642    -0.89900
H3362       H  0.64700207  0.13542710  0.74676023     0.17800
H3363       H  0.61506194  0.10508259  0.63102094     0.17800
N3364       N  0.59687975  0.07802503  0.68497741    -0.88900
H3365       H  0.68192019  0.15736134  0.70507255     0.35200
H3366       H  0.65553322  0.17621048  0.70948973     0.40300
H3367       H  0.60467330  0.06335076  0.66919398     0.39900
H3368       H  0.58052000  0.08511016  0.67239743     0.34800
C3369       C  0.96534107  0.14659674  0.90926308    -0.27000
C3370       C  0.97257940  0.13893204  0.94321027    -0.15000
C3371       C  0.95655843  0.14540656  0.97210633     0.35600
C3372       C  0.93367159  0.15884246  0.96671649    -0.26400
C3373       C  0.92638762  0.16629480  0.93301143    -0.15700
C3374       C  0.94240615  0.16044209  0.90400994     0.36700
N3375       N  0.93487907  0.16752134  0.86915875    -0.89900
H3376       H  0.97731860  0.14163485  0.88681769     0.17800
H3377       H  0.92112870  0.16286738  0.98897707     0.17800
N3378       N  0.96272198  0.13723403  0.00692633    -0.88900
H3379       H  0.94937254  0.17894675  0.85847952     0.35200
H3380       H  0.93364461  0.15073517  0.85389326     0.40300
H3381       H  0.94768766  0.12576653  0.01600737     0.39900
H3382       H  0.96368977  0.15355460  0.02314246     0.34800
C3383       C  0.87829934  0.09953681  0.82167625    -0.27000
C3384       C  0.87224687  0.10799362  0.78765597    -0.15000
C3385       C  0.85263088  0.12645053  0.78360716     0.35600
C3386       C  0.84120347  0.13792845  0.81349596    -0.26400
C3387       C  0.84945769  0.13166413  0.84753716    -0.15700
C3388       C  0.86709638  0.11129482  0.85160730     0.36700
N3389       N  0.87592740  0.10465198  0.88604411    -0.89900
H3390       H  0.89382348  0.08584934  0.82517407     0.17800
H3391       H  0.82820724  0.15404778  0.80996115     0.17800
N3392       N  0.84648987  0.13578698  0.74924217    -0.88900
H3393       H  0.89573515  0.10773917  0.88698498     0.35200
H3394       H  0.87268017  0.08501635  0.88964363     0.40300
H3395       H  0.85038176  0.15550522  0.74867426     0.39900
H3396       H  0.82680113  0.13336319  0.74533349     0.34800
C3397       C  0.81556790  0.23063470  0.58986990    -0.27000
C3398       C  0.83422600  0.24993409  0.59179403    -0.15000
C3399       C  0.85774832  0.24634456  0.57366063     0.35600
C3400       C  0.86103661  0.22511396  0.55118632    -0.26400
C3401       C  0.84097390  0.20783720  0.54561812    -0.15700
C3402       C  0.81863707  0.20963739  0.56686547     0.36700
N3403       N  0.79785841  0.19170099  0.56330884    -0.89900
H3404       H  0.79806944  0.23238352  0.60525632     0.17800
H3405       H  0.87813421  0.22396948  0.53483615     0.17800
N3406       N  0.87829634  0.26434758  0.57762850    -0.88900
H3407       H  0.79517954  0.18303217  0.58778945     0.35200
H3408       H  0.81003491  0.17841586  0.04581307     0.40300
H3409       H  0.88275474  0.27166800  0.55278428     0.39900
H3410       H  0.89437596  0.25438885  0.58684956     0.34800
C3411       C  0.81399889  0.27931891  0.83762441    -0.27000
C3412       C  0.82990643  0.25743126  0.83572420    -0.15000
C3413       C  0.85146622  0.25775847  0.81265654     0.35600
C3414       C  0.85618283  0.27940878  0.79214865    -0.26400
C3415       C  0.83905547  0.30016233  0.79187066    -0.15700
C3416       C  0.81811836  0.30034621  0.81541814     0.36700
N3417       N  0.80005717  0.32120637  0.81501430    -0.89900
H3418       H  0.79788858  0.27985125  0.85577006     0.17800
H3419       H  0.87181369  0.27877291  0.77325344     0.17800
N3420       N  0.86893855  0.23651290  0.80908958    -0.88900
H3421       H  0.79914801  0.32915468  0.84037559     0.35200
H3422       H  0.78199255  0.31370758  0.80905183     0.40300
H3423       H  0.85883890  0.22031788  0.80051050     0.39900
H3424       H  0.87749820  0.23289037  0.83336818     0.34800
C3425       C  0.75617598  0.16130368  0.49056432    -0.27000
C3426       C  0.76517605  0.18449236  0.97446472    -0.15000
C3427       C  0.75296170  0.20717133  0.98735846     0.35600
C3428       C  0.73612738  0.20596899  0.01625155    -0.26400
C3429       C  0.72649064  0.18312981  0.53096101    -0.15700
C3430       C  0.73788017  0.16024634  0.51808205     0.36700
N3431       N  0.73087347  0.13598856  0.53314869    -0.89900
H3432       H  0.76548475  0.14365869  0.48189182     0.17800
H3433       H  0.72675110  0.22353684  0.02512123     0.17800
N3434       N  0.75747719  0.23189572  0.97221531    -0.88900
H3435       H  0.73663058  0.13626229  0.55948915     0.35200
H3436       H  0.74093517  0.12092108  0.52085210     0.40300
H3437       H  0.75259025  0.23110413  0.94554707     0.39900
H3438       H  0.77688508  0.23644083  0.97468980     0.34800
C3439       C  0.63143531  0.38694488  0.96789325    -0.27000
C3440       C  0.61002233  0.40262000  0.96076982    -0.15000
C3441       C  0.60541530  0.40956436  0.92529012     0.35600
C3442       C  0.61931573  0.39744670  0.89801817    -0.26400
C3443       C  0.63751678  0.37823438  0.90526244    -0.15700
C3444       C  0.64505038  0.37445944  0.94057416     0.36700
N3445       N  0.66481612  0.35632869  0.94967346    -0.89900
H3446       H  0.63588928  0.38200276  0.99486007     0.17800
H3447       H  0.61361599  0.40081236  0.87100704     0.17800
N3448       N  0.58615612  0.42805437  0.91600315    -0.88900
H3449       H  0.67905098  0.36645688  0.96317210     0.35200
H3450       H  0.67366659  0.34874693  0.92709782     0.40300
H3451       H  0.58943001  0.44494491  0.93039564     0.39900
H3452       H  0.56801367  0.42103195  0.92239391     0.34800
C3453       C  0.43744584  0.42831068  0.94181596    -0.27000
C3454       C  0.43333157  0.40498127  0.92341561    -0.15000
C3455       C  0.44741278  0.38313383  0.93266648     0.35600
C3456       C  0.46838959  0.38605173  0.95507405    -0.26400
C3457       C  0.47553423  0.41038109  0.96887308    -0.15700
C3458       C  0.45855125  0.43128420  0.96432365     0.36700
N3459       N  0.46303812  0.45595340  0.98008429    -0.89900
H3460       H  0.42642835  0.44524986  0.93478865     0.17800
H3461       H  0.48021282  0.36928421  0.95975027     0.17800
N3462       N  0.44301074  0.35905441  0.91474731    -0.88900
H3463       H  0.48107529  0.46241402  0.97199989     0.35200
H3464       H  0.46307295  0.45384293  0.00743546     0.40300
H3465       H  0.42442992  0.35309949  0.92104742     0.39900
H3466       H  0.45553972  0.34483404  0.92382963     0.34800
C3467       C  0.50906576  0.42954953  0.71307498    -0.27000
C3468       C  0.49259803  0.40907755  0.72070952    -0.15000
C3469       C  0.49659348  0.38502587  0.70402748     0.35600
C3470       C  0.51478820  0.38267761  0.67722970    -0.26400
C3471       C  0.52836298  0.40413920  0.66568246    -0.15700
C3472       C  0.52680293  0.42732117  0.68514424     0.36700
N3473       N  0.54160856  0.44913723  0.67490104    -0.89900
H3474       H  0.50698747  0.44770040  0.72707287     0.17800
H3475       H  0.51651900  0.36457948  0.66303467     0.17800
N3476       N  0.48178210  0.36300197  0.71375463    -0.88900
H3477       H  0.55290760  0.45463280  0.69634753     0.35200
H3478       H  0.52883905  0.46419796  0.66986697     0.40300
H3479       H  0.49444047  0.34844045  0.72144249     0.39900
H3480       H  0.47180567  0.35653432  0.69159265     0.34800
C3481       C  0.61663609  0.29390430  0.53644717    -0.27000
C3482       C  0.61354419  0.28138445  0.56873708    -0.15000
C3483       C  0.60080854  0.29454270  0.59666755     0.35600
C3484       C  0.59116992  0.31946347  0.59153280    -0.26400
C3485       C  0.59356300  0.33148893  0.55887628    -0.15700
C3486       C  0.60665524  0.31862066  0.53120916     0.36700
N3487       N  0.61010132  0.33066857  0.49774520    -0.89900
H3488       H  0.62675013  0.28443730  0.51495436     0.17800
H3489       H  0.58104748  0.32909644  0.61292113     0.17800
N3490       N  0.59767973  0.28290229  0.63043765    -0.88900
H3491       H  0.60142587  0.31916555  0.47852107     0.35200
H3492       H  0.62976380  0.33120056  0.49234674     0.40300
H3493       H  0.57804216  0.28198030  0.63603437     0.39900
H3494       H  0.60611444  0.29498686  0.64918836     0.34800
C3495       C  0.44123869  0.33416060  0.59057840    -0.27000
C3496       C  0.42466264  0.32868330  0.56233499    -0.15000
C3497       C  0.43499778  0.32768092  0.52795876     0.35600
C3498       C  0.46081037  0.33475086  0.52222390    -0.26400
C3499       C  0.47628629  0.34297289  0.55036584    -0.15700
C3500       C  0.46663358  0.34145471  0.58481159     0.36700
N3501       N  0.48210684  0.34935825  0.61397829    -0.89900
H3502       H  0.43421951  0.33421899  0.61748574     0.17800
H3503       H  0.46813956  0.33554755  0.49554963     0.17800
N3504       N  0.41921706  0.32039446  0.49882840    -0.88900
H3505       H  0.48322138  0.33403569  0.63158125     0.35200
H3506       H  0.47276493  0.36469796  0.62670168     0.40300
H3507       H  0.42809216  0.30501395  0.48566430     0.39900
H3508       H  0.41819976  0.33594817  0.48163517     0.34800
C3509       C  0.61244988  0.60015762  0.81045947    -0.27000
C3510       C  0.61875045  0.60816202  0.77627589    -0.15000
C3511       C  0.63989242  0.62466843  0.77189579     0.35600
C3512       C  0.65183762  0.63566833  0.80177250    -0.26400
C3513       C  0.64338631  0.63022236  0.83622379    -0.15700
C3514       C  0.62470487  0.61061882  0.84029084     0.36700
N3515       N  0.61610351  0.60245998  0.87425175    -0.89900
H3516       H  0.59624574  0.58746039  0.81423223     0.17800
H3517       H  0.66634526  0.65027511  0.79804804     0.17800
N3518       N  0.64751738  0.63212055  0.73706933    -0.88900
H3519       H  0.60776905  0.61806227  0.88750226     0.35200
H3520       H  0.63200769  0.59601889  0.88843700     0.40300
H3521       H  0.65415057  0.61560934  0.72396886     0.39900
H3522       H  0.66295801  0.64488941  0.73817002     0.34800
C3523       C  0.47490525  0.57208575  0.78972817    -0.27000
C3524       C  0.49200967  0.59239488  0.78476226    -0.15000
C3525       C  0.48668569  0.61655022  0.80055208     0.35600
C3526       C  0.46628374  0.61907281  0.82455048    -0.26400
C3527       C  0.45114739  0.59780690  0.83283436    -0.15700
C3528       C  0.45458245  0.57459575  0.81375434     0.36700
N3529       N  0.43868408  0.55285572  0.82113190    -0.89900
H3530       H  0.47792611  0.55392644  0.77604770     0.17800
H3531       H  0.46379857  0.63697725  0.83903799     0.17800
N3532       N  0.50175826  0.63860025  0.79177995    -0.88900
H3533       H  0.42996113  0.54707322  0.79763774     0.35200
H3534       H  0.45050329  0.53780527  0.82950013     0.40300
H3535       H  0.51049649  0.64559465  0.81454602     0.39900
H3536       H  0.48940617  0.65287411  0.78242375     0.34800
C3537       C  0.52181342  0.61771552  0.57530114    -0.27000
C3538       C  0.53859407  0.59704622  0.58088528    -0.15000
C3539       C  0.53570094  0.57430563  0.56032459     0.35600
C3540       C  0.51472850  0.57188599  0.53754532    -0.26400
C3541       C  0.49647718  0.59161174  0.53459740    -0.15700
C3542       C  0.50083703  0.61523074  0.55242612     0.36700
N3543       N  0.48409421  0.63683477  0.54732662    -0.89900
H3544       H  0.52350720  0.63503212  0.59123575     0.17800
H3545       H  0.51234964  0.55415303  0.52271371     0.17800
N3546       N  0.55269742  0.55260151  0.56396302    -0.88900
H3547       H  0.49506955  0.65203862  0.53771427     0.35200
H3548       H  0.47668989  0.64252021  0.57182278     0.40300
H3549       H  0.56794128  0.55699431  0.58071366     0.39900
H3550       H  0.56094909  0.54891412  0.53927511     0.34800
C3551       C  0.53697083  0.51609863  0.63992669    -0.27000
C3552       C  0.56182987  0.52152818  0.65194197    -0.15000
C3553       C  0.58268837  0.50807329  0.63628602     0.35600
C3554       C  0.57813117  0.48881852  0.61076204    -0.26400
C3555       C  0.55310108  0.48286066  0.59942946    -0.15700
C3556       C  0.53236991  0.49747092  0.61390804     0.36700
N3557       N  0.50631745  0.49414066  0.60283231    -0.89900
H3558       H  0.52077786  0.52706773  0.65012229     0.17800
H3559       H  0.59433345  0.47792135  0.60051947     0.17800
N3560       N  0.60864904  0.51304893  0.64639027    -0.88900
H3561       H  0.49955023  0.47638102  0.61138594     0.35200
H3562       H  0.50557785  0.49506007  0.57534577     0.40300
H3563       H  0.61005831  0.51095182  0.67367682     0.39900
H3564       H  0.61318679  0.53198877  0.63995113     0.34800
C3565       C  0.86251789  0.61760354  0.71502226    -0.27000
C3566       C  0.88202916  0.59925747  0.70888312    -0.15000
C3567       C  0.88579098  0.59051528  0.67390200     0.35600
C3568       C  0.87250959  0.60219908  0.64573318    -0.26400
C3569       C  0.85546207  0.62290341  0.65148323    -0.15700
C3570       C  0.84946547  0.62966755  0.68695478     0.36700
N3571       N  0.83178373  0.65016447  0.69537028    -0.89900
H3572       H  0.85907073  0.62449337  0.74163263     0.17800
H3573       H  0.87758178  0.59677257  0.61896819     0.17800
N3574       N  0.90419375  0.57061671  0.66667645    -0.88900
H3575       H  0.81705876  0.64235662  0.71065525     0.35200
H3576       H  0.82300246  0.65716487  0.67268392     0.40300
H3577       H  0.91792721  0.57792901  0.64942609     0.39900
H3578       H  0.89473097  0.55556869  0.65377817     0.34800
C3579       C  0.04844963  0.56010402  0.68086577    -0.27000
C3580       C  0.05551456  0.58342077  0.66459496    -0.15000
C3581       C  0.04546670  0.60653565  0.67755737     0.35600
C3582       C  0.02546587  0.60586001  0.70193265    -0.26400
C3583       C  0.01527324  0.58242776  0.71407321    -0.15700
C3584       C  0.02804328  0.55932872  0.70537126     0.36700
N3585       N  0.01927482  0.53526365  0.71921453    -0.89900
H3586       H  0.05638259  0.54217766  0.67077017     0.17800
H3587       H  0.01654476  0.62389776  0.70926698     0.17800
N3588       N  0.05286412  0.63048504  0.66217427    -0.88900
H3589       H  0.03084192  0.52014137  0.70996789     0.35200
H3590       H  0.00086118  0.53199110  0.70933794     0.40300
H3591       H  0.03659955  0.63897574  0.65106044     0.39900
H3592       H  0.05932003  0.64256017  0.68233235     0.34800
C3593       C  0.99728845  0.60976069  0.95073020    -0.27000
C3594       C  0.00257999  0.58428415  0.96064175    -0.15000
C3595       C  0.98713215  0.56426377  0.94735095     0.35600
C3596       C  0.96875379  0.56983988  0.92159711    -0.26400
C3597       C  0.96548293  0.59503795  0.90912516    -0.15700
C3598       C  0.97858836  0.61541297  0.92574106     0.36700
N3599       N  0.97409812  0.64187279  0.91675669    -0.89900
H3600       H  0.00796276  0.62552899  0.96234325     0.17800
H3601       H  0.95867359  0.55411343  0.90904143     0.17800
N3602       N  0.99081348  0.53808460  0.95769141    -0.88900
H3603       H  0.96789418  0.65144204  0.93961057     0.35200
H3604       H  0.95906520  0.64348868  0.89879526     0.40300
H3605       H  0.98745154  0.53680711  0.98476708     0.39900
H3606       H  0.00990144  0.53292926  0.95261504     0.34800
C3607       C  0.87438888  0.39461897  0.60033007    -0.27000
C3608       C  0.85475705  0.37648934  0.59566987    -0.15000
C3609       C  0.84591992  0.37174867  0.56103712     0.35600
C3610       C  0.85805696  0.38347488  0.53206324    -0.26400
C3611       C  0.87965040  0.39931442  0.53657054    -0.15700
C3612       C  0.88708830  0.40582558  0.57144048     0.36700
N3613       N  0.90888729  0.42192062  0.57847845    -0.89900
H3614       H  0.88168506  0.39820727  0.62657629     0.17800
H3615       H  0.85240904  0.37779509  0.50568857     0.17800
N3616       N  0.82595084  0.35353407  0.55437345    -0.88900
H3617       H  0.90239883  0.43766063  0.59341601     0.35200
H3618       H  0.91634147  0.42956785  0.55526755     0.40300
H3619       H  0.80970529  0.35932828  0.56868052     0.39900
H3620       H  0.83181701  0.33556202  0.56360431     0.34800
C3621       C  0.00557464  0.39222640  0.55819489    -0.27000
C3622       C  0.00432529  0.41599740  0.54080407    -0.15000
C3623       C  0.02461473  0.43360832  0.54488073     0.35600
C3624       C  0.04463514  0.42780671  0.56838680    -0.26400
C3625       C  0.04473274  0.40478525  0.58773951    -0.15700
C3626       C  0.02556251  0.38651323  0.58137818     0.36700
N3627       N  0.02509423  0.36305268  0.60091337    -0.89900
H3628       H  0.99073222  0.37797717  0.55413425     0.17800
H3629       H  0.05885424  0.44236660  0.57430414     0.17800
N3630       N  0.03033459  0.45407370  0.02685125    -0.88900
H3631       H  0.02523505  0.34772089  0.58290899     0.35200
H3632       H  0.00782955  0.36240543  0.61501525     0.40300
H3633       H  0.04627039  0.45302929  0.01006860     0.39900
H3634       H  0.03353141  0.46900551  0.04485613     0.34800
C3635       C  0.96292681  0.42929077  0.82325844    -0.27000
C3636       C  0.96033616  0.40728686  0.84427715    -0.15000
C3637       C  0.97723123  0.38637868  0.83862892     0.35600
C3638       C  0.99764273  0.38878729  0.81476158    -0.26400
C3639       C  0.00145900  0.41163517  0.79576836    -0.15700
C3640       C  0.98318951  0.43159026  0.79906681     0.36700
N3641       N  0.98567085  0.45462988  0.77892063    -0.89900
H3642       H  0.95046956  0.44576252  0.82794058     0.17800
H3643       H  0.01059625  0.37260511  0.81102568     0.17800
N3644       N  0.97484138  0.36299053  0.85807171    -0.88900
H3645       H  0.98696017  0.47018351  0.79636915     0.35200
H3646       H  0.96891973  0.45694857  0.76415721     0.40300
H3647       H  0.95648229  0.35562496  0.85366902     0.39900
H3648       H  0.97658237  0.36710803  0.88491412     0.34800
C3649       C  0.89214183  0.28590258  0.96813771    -0.27000
C3650       C  0.88158417  0.28045532  0.93504609    -0.15000
C3651       C  0.88407321  0.29856189  0.90781556     0.35600
C3652       C  0.89676848  0.32180787  0.91413812    -0.26400
C3653       C  0.90736883  0.32722007  0.94715151    -0.15700
C3654       C  0.90495078  0.30909280  0.97450639     0.36700
N3655       N  0.91439177  0.31416807  0.00924573    -0.89900
H3656       H  0.89058710  0.27195664  0.98899895     0.17800
H3657       H  0.89817544  0.33580143  0.89320233     0.17800
N3658       N  0.87301769  0.29380478  0.87399295    -0.88900
H3659       H  0.90583115  0.33113291  0.01868234     0.35200
H3660       H  0.93421386  0.31688265  0.00778608     0.40300
H3661       H  0.88768289  0.29462767  0.85516197     0.39900
H3662       H  0.85998081  0.30864301  0.86883517     0.34800
C3663       C  0.95798272  0.49298422  0.89480721    -0.27000
C3664       C  0.93380735  0.48665831  0.90855073    -0.15000
C3665       C  0.91185546  0.49772801  0.89235542     0.35600
C3666       C  0.91465745  0.51496253  0.86394762    -0.26400
C3667       C  0.93896500  0.52115801  0.85008531    -0.15700
C3668       C  0.96077286  0.50949723  0.86585765     0.36700
N3669       N  0.98612112  0.51457245  0.85295322    -0.89900
H3670       H  0.97505007  0.48410015  0.90563205     0.17800
H3671       H  0.89766788  0.52407783  0.85330138     0.17800
N3672       N  0.88645796  0.49243120  0.90479151    -0.88900
H3673       H  0.99479435  0.49703805  0.84624827     0.35200
H3674       H  0.99669349  0.52281220  0.87348185     0.40300
H3675       H  0.88566226  0.49664859  0.93175132     0.39900
H3676       H  0.88261338  0.47291011  0.90103847     0.34800
C3677       C  0.02757436  0.34176907  0.95148074    -0.27000
C3678       C  0.02627135  0.36864136  0.94843139    -0.15000
C3679       C  0.04925906  0.38257623  0.94393269     0.35600
C3680       C  0.07272882  0.36946999  0.94180675    -0.26400
C3681       C  0.07409287  0.34247448  0.94370037    -0.15700
C3682       C  0.05115724  0.32858476  0.94883730     0.36700
N3683       N  0.05166716  0.30115892  0.95186992    -0.89900
H3684       H  0.01015004  0.33091085  0.95580606     0.17800
H3685       H  0.09003405  0.38061217  0.93809913     0.17800
N3686       N  0.04951067  0.41011355  0.94267294    -0.88900
H3687       H  0.03998134  0.29342594  0.93216609     0.35200
H3688       H  0.04373335  0.29633395  0.97626475     0.40300
H3689       H  0.03898302  0.41606841  0.92083794     0.39900
H3690       H  0.04073476  0.41731906  0.96554402     0.34800
C3691       C  0.05065790  0.66792541  0.82990367    -0.27000
C3692       C  0.06682405  0.67073850  0.80065668    -0.15000
C3693       C  0.05637360  0.66898058  0.76655921     0.35600
C3694       C  0.03023658  0.66343124  0.76234864    -0.26400
C3695       C  0.01463800  0.65810344  0.79160290    -0.15700
C3696       C  0.02488324  0.66109496  0.82561334     0.36700
N3697       N  0.00951717  0.65543486  0.85586519    -0.89900
H3698       H  0.05841887  0.66967282  0.85626681     0.17800
H3699       H  0.02259669  0.66142527  0.73605968     0.17800
N3700       N  0.07193007  0.67249697  0.73594411    -0.88900
H3701       H  0.00911652  0.67177911  0.87209898     0.35200
H3702       H  0.01852758  0.64061191  0.86967136     0.40300
H3703       H  0.07979420  0.69082719  0.73774520     0.39900
H3704       H  0.08689130  0.65902540  0.73637278     0.34800
C3705       C  0.10140535  0.59970806  0.92810524    -0.27000
C3706       C  0.11750906  0.59861041  0.95768498    -0.15000
C3707       C  0.14299084  0.60726873  0.95405216     0.35600
C3708       C  0.15097066  0.61930054  0.92244948    -0.26400
C3709       C  0.13361384  0.62326651  0.89463649    -0.15700
C3710       C  0.10892726  0.61232719  0.89708817     0.36700
N3711       N  0.09070354  0.61631376  0.86927329    -0.89900
H3712       H  0.08169469  0.59340000  0.93071890     0.17800
H3713       H  0.16987126  0.62784343  0.92115272     0.17800
N3714       N  0.15860305  0.60619944  0.48544982    -0.88900
H3715       H  0.07306917  0.60790816  0.87544273     0.35200
H3716       H  0.09768146  0.60681691  0.84680558     0.40300
H3717       H  0.14954269  0.59753734  0.50680138     0.39900
H3718       H  0.16260694  0.62518006  0.49272854     0.34800
C3719       C  0.10878513  0.78944569  0.84629506    -0.27000
C3720       C  0.12327687  0.77825652  0.81865786    -0.15000
C3721       C  0.12725076  0.79248844  0.78765996     0.35600
C3722       C  0.11579733  0.81673207  0.78424858    -0.26400
C3723       C  0.10085182  0.82759027  0.81144687    -0.15700
C3724       C  0.09763474  0.81393831  0.84295607     0.36700
N3725       N  0.08209093  0.82427012  0.87092709    -0.89900
H3726       H  0.10578754  0.77905805  0.87058984     0.17800
H3727       H  0.11812324  0.82685415  0.75964359     0.17800
N3728       N  0.14227627  0.78228562  0.75908847    -0.88900
H3729       H  0.09335724  0.82527778  0.89361614     0.35200
H3730       H  0.06711445  0.81141773  0.87567506     0.40300
H3731       H  0.15751081  0.79486183  0.75451372     0.39900
H3732       H  0.13078115  0.78215543  0.73661088     0.34800
C3733       C  0.34921138  0.62120211  0.52162219    -0.27000
C3734       C  0.37145575  0.60642431  0.52667111    -0.15000
C3735       C  0.37918520  0.60101848  0.56162948     0.35600
C3736       C  0.36662034  0.61326314  0.59014333    -0.26400
C3737       C  0.34702028  0.63141013  0.58452031    -0.15700
C3738       C  0.33722724  0.63404599  0.55009346     0.36700
N3739       N  0.31643994  0.65148364  0.54358280    -0.89900
H3740       H  0.34298247  0.62536622  0.49509177     0.17800
H3741       H  0.37430452  0.61082598  0.61638616     0.17800
N3742       N  0.40116575  0.58512020  0.56890151    -0.88900
H3743       H  0.30175144  0.64118505  0.53130049     0.35200
H3744       H  0.32286522  0.66548605  0.52604593     0.40300
H3745       H  0.40842377  0.57675932  0.54579038     0.39900
H3746       H  0.39490290  0.56985636  0.58445014     0.34800
C3747       C  0.42900740  0.63878868  0.65396583    -0.27000
C3748       C  0.42085746  0.65914204  0.67568921    -0.15000
C3749       C  0.43785325  0.66967028  0.70047488     0.35600
C3750       C  0.46276870  0.65946050  0.70332550    -0.26400
C3751       C  0.47094297  0.63863014  0.68195205    -0.15700
C3752       C  0.45359167  0.62818444  0.65714232     0.36700
N3753       N  0.46038725  0.60631477  0.63577333    -0.89900
H3754       H  0.41600509  0.63074840  0.63462596     0.17800
H3755       H  0.47566685  0.66783736  0.72250123     0.17800
N3756       N  0.43014493  0.69113629  0.72200024    -0.88900
H3757       H  0.45804174  0.61124134  0.60934225     0.35200
H3758       H  0.44750897  0.59153109  0.64134231     0.40300
H3759       H  0.44284549  0.70624350  0.71726442     0.39900
H3760       H  0.43203111  0.68585080  0.74837517     0.34800
C3761       C  0.25981292  0.70499476  0.74586451    -0.27000
C3762       C  0.26815076  0.68436569  0.72417310    -0.15000
C3763       C  0.25754957  0.65979312  0.73068855     0.35600
C3764       C  0.23907032  0.65667089  0.75804558    -0.26400
C3765       C  0.23096806  0.67739666  0.77976992    -0.15700
C3766       C  0.24169319  0.70192087  0.77320802     0.36700
N3767       N  0.23296035  0.72418087  0.79271757    -0.89900
H3768       H  0.26770186  0.72398299  0.74182493     0.17800
H3769       H  0.23041216  0.63799037  0.76187071     0.17800
N3770       N  0.26527443  0.63810265  0.70941886    -0.88900
H3771       H  0.24170757  0.74090791  0.78351870     0.35200
H3772       H  0.23879567  0.72208805  0.81881924     0.40300
H3773       H  0.25908037  0.64153155  0.68371088     0.39900
H3774       H  0.25597864  0.62143097  0.71774539     0.34800
C3775       C  0.37962547  0.79758668  0.63596009    -0.27000
C3776       C  0.39263513  0.77551193  0.64767670    -0.15000
C3777       C  0.41748998  0.77835123  0.66172670     0.35600
C3778       C  0.42776226  0.80320772  0.66607036    -0.26400
C3779       C  0.41375090  0.82534930  0.65622916    -0.15700
C3780       C  0.39017130  0.82213454  0.63864694     0.36700
N3781       N  0.37628565  0.84388714  0.62505790    -0.89900
H3782       H  0.36026968  0.79600958  0.62625480     0.17800
H3783       H  0.44607835  0.80523857  0.67917929     0.17800
N3784       N  0.43178367  0.75673296  0.67428288    -0.88900
H3785       H  0.35901378  0.83814832  0.61354042     0.35200
H3786       H  0.38739497  0.85173143  0.60485650     0.40300
H3787       H  0.43466722  0.74391678  0.65326356     0.39900
H3788       H  0.42084098  0.74755004  0.69355435     0.34800
C3789       C  0.02062862  0.84860579  0.53546021    -0.27000
C3790       C  0.01248711  0.86563118  0.56258863    -0.15000
C3791       C  0.02873734  0.86920187  0.59210342     0.35600
C3792       C  0.05246318  0.85646808  0.59317328    -0.26400
C3793       C  0.06060687  0.84038301  0.56544884    -0.15700
C3794       C  0.04453723  0.83621989  0.53659821     0.36700
N3795       N  0.05274266  0.81998302  0.50799566    -0.89900
H3796       H  0.00874431  0.84532033  0.51252886     0.17800
H3797       H  0.06493895  0.85958966  0.61556456     0.17800
N3798       N  0.02214562  0.88585911  0.62101950    -0.88900
H3799       H  0.05266224  0.83091393  0.48499836     0.35200
H3800       H  0.03928498  0.80527656  0.50502305     0.40300
H3801       H  0.01993182  0.90460157  0.61169895     0.39900
H3802       H  0.00489377  0.87963682  0.63206211     0.34800
C3803       C  0.14430902  0.87445754  0.68128616    -0.27000
C3804       C  0.13337725  0.87745042  0.64770910    -0.15000
C3805       C  0.11264154  0.89476401  0.64415552     0.35600
C3806       C  0.10120835  0.90591450  0.67446369    -0.26400
C3807       C  0.10991823  0.90010245  0.70863066    -0.15700
C3808       C  0.13301184  0.88593120  0.71160889     0.36700
N3809       N  0.14390798  0.88132219  0.74553265    -0.89900
H3810       H  0.16017777  0.86114208  0.68451747     0.17800
H3811       H  0.08378466  0.91715593  0.67155120     0.17800
N3812       N  0.10147966  0.89867391  0.61004584    -0.88900
H3813       H  0.16256982  0.88861069  0.74542519     0.35200
H3814       H  0.14523984  0.86146130  0.74909669     0.40300
H3815       H  0.11523308  0.90773046  0.59438617     0.39900
H3816       H  0.08576078  0.91120268  0.61181238     0.34800
C3817       C  0.18366157  0.71935742  0.69481766    -0.27000
C3818       C  0.16036965  0.71379940  0.71204755    -0.15000
C3819       C  0.13826628  0.72794816  0.70383445     0.35600
C3820       C  0.13989825  0.74820964  0.68011523    -0.26400
C3821       C  0.16330993  0.75459899  0.66420015    -0.15700
C3822       C  0.18529681  0.73959087  0.67065059     0.36700
N3823       N  0.20916904  0.74536375  0.65339452    -0.89900
H3824       H  0.20089936  0.70884540  0.70185505     0.17800
H3825       H  0.12261575  0.75894953  0.67395883     0.17800
N3826       N  0.11441595  0.72283539  0.72106543    -0.88900
H3827       H  0.22351539  0.73252761  0.66124268     0.35200
H3828       H  0.21485605  0.76366242  0.66185864     0.40300
H3829       H  0.10876992  0.73935743  0.73499741     0.39900
H3830       H  0.10077187  0.71943198  0.70147263     0.34800
C3831       C  0.16820144  0.77073060  0.91391018    -0.27000
C3832       C  0.15769194  0.74610010  0.91891197    -0.15000
C3833       C  0.13802405  0.74331009  0.94444997     0.35600
C3834       C  0.13068352  0.76444746  0.96556290    -0.26400
C3835       C  0.14298506  0.78828068  0.96254692    -0.15700
C3836       C  0.16103376  0.79162341  0.93543029     0.36700
N3837       N  0.17365160  0.81586650  0.93162366    -0.89900
H3838       H  0.18247670  0.77383723  0.89357876     0.17800
H3839       H  0.11727224  0.76139709  0.98702846     0.17800
N3840       N  0.12577578  0.71901305  0.94973593    -0.88900
H3841       H  0.17051203  0.82228543  0.90597055     0.35200
H3842       H  0.19337493  0.81288834  0.93469316     0.40300
H3843       H  0.10605901  0.72148919  0.94589015     0.39900
H3844       H  0.12863124  0.71356510  0.97586352     0.34800
C3845       C  0.12764999  0.70425131  0.55041920    -0.27000
C3846       C  0.11250295  0.72340406  0.56663241    -0.15000
C3847       C  0.08834569  0.71657675  0.58066601     0.35600
C3848       C  0.07968704  0.69107165  0.57762211    -0.26400
C3849       C  0.09489758  0.67193196  0.56143782    -0.15700
C3850       C  0.11917975  0.67866072  0.54773199     0.36700
N3851       N  0.13487459  0.65969143  0.53016326    -0.89900
H3852       H  0.14633301  0.70922316  0.53992596     0.17800
H3853       H  0.06091892  0.68621222  0.58796252     0.17800
N3854       N  0.07230179  0.73551991  0.59746132    -0.88900
H3855       H  0.15230920  0.66769135  0.52216020     0.35200
H3856       H  0.12531241  0.65417579  0.50718080     0.40300
H3857       H  0.06859291  0.72947640  0.62317989     0.39900
H3858       H  0.05485209  0.73619431  0.58399354     0.34800
C3859       C  0.44174253  0.82533545  0.94183409    -0.27000
C3860       C  0.42027468  0.83898828  0.95517760    -0.15000
C3861       C  0.42431069  0.85884008  0.98020326     0.35600
C3862       C  0.44932085  0.86607303  0.98857879    -0.26400
C3863       C  0.47060864  0.85420667  0.97251041    -0.15700
C3864       C  0.46693711  0.83279995  0.95027191     0.36700
N3865       N  0.48863634  0.82000038  0.93438826    -0.89900
H3866       H  0.43894838  0.80965627  0.92328302     0.17800
H3867       H  0.45226621  0.88221719  0.00624542     0.17800
N3868       N  0.40226286  0.89175149  0.46117996    -0.88900
H3869       H  0.48258863  0.80512881  0.91771280     0.35200
H3870       H  0.49910432  0.81137414  0.95457102     0.40300
H3871       H  0.39142981  0.85875326  0.00896034     0.39900
H3872       H  0.39453274  0.89338410  0.43592451     0.34800
C3873       C  0.34314777  0.86451137  0.80621494    -0.27000
C3874       C  0.35318926  0.87463327  0.83774833    -0.15000
C3875       C  0.37148098  0.89452387  0.83556884     0.35600
C3876       C  0.38043203  0.90270404  0.80221896    -0.26400
C3877       C  0.37204527  0.89094492  0.77080481    -0.15700
C3878       C  0.35256717  0.87224035  0.77290383     0.36700
N3879       N  0.34403973  0.85958289  0.74129912    -0.89900
H3880       H  0.32972281  0.84868990  0.80764506     0.17800
H3881       H  0.39592688  0.91650384  0.80092258     0.17800
N3882       N  0.38264595  0.90462910  0.86731251    -0.88900
H3883       H  0.33515324  0.87345642  0.72566113     0.35200
H3884       H  0.33007302  0.84587495  0.74716465     0.40300
H3885       H  0.36803783  0.91390766  0.88155129     0.39900
H3886       H  0.39631989  0.91862331  0.86140673     0.34800
C3887       C  0.35474118  0.76174084  0.81022946    -0.27000
C3888       C  0.33139679  0.76004852  0.82871271    -0.15000
C3889       C  0.31526607  0.73862900  0.82309394     0.35600
C3890       C  0.32150664  0.72107627  0.79608690    -0.26400
C3891       C  0.34368879  0.72440932  0.77573520    -0.15700
C3892       C  0.36121240  0.74389712  0.78417881     0.36700
N3893       N  0.38466214  0.74642215  0.76436171    -0.89900
H3894       H  0.36809366  0.77712033  0.81599631     0.17800
H3895       H  0.30808407  0.70602550  0.78910007     0.17800
N3896       N  0.29219809  0.73535892  0.84342762    -0.88900
H3897       H  0.39576298  0.72999155  0.76892045     0.35200
H3898       H  0.39529771  0.76213516  0.77344285     0.40300
H3899       H  0.29764652  0.73061758  0.86902708     0.39900
H3900       H  0.28204647  0.71941336  0.83416404     0.34800
C3901       C  0.30112766  0.79972266  0.55267950    -0.27000
C3902       C  0.32481593  0.80728851  0.53768077    -0.15000
C3903       C  0.34742576  0.79551245  0.54915264     0.35600
C3904       C  0.34572250  0.77365768  0.56954663    -0.26400
C3905       C  0.32192335  0.76372928  0.58124922    -0.15700
C3906       C  0.29947672  0.77801712  0.57445080     0.36700
N3907       N  0.27483031  0.77003769  0.58689773    -0.89900
H3908       H  0.28350578  0.80871898  0.54382873     0.17800
H3909       H  0.36368141  0.76415825  0.57572338     0.17800
N3910       N  0.37229524  0.80338601  0.53709801    -0.88900
H3911       H  0.27516969  0.76995144  0.61441577     0.35200
H3912       H  0.27155234  0.75128148  0.57789503     0.40300
H3913       H  0.37951812  0.81121697  0.03495332     0.39900
H3914       H  0.37353346  0.80085394  0.50980325     0.34800
C3915       C  0.24869981  0.84876418  0.47911617    -0.27000
C3916       C  0.25862559  0.82967079  0.96228193    -0.15000
C3917       C  0.24648036  0.80604771  0.97033818     0.35600
C3918       C  0.22966510  0.80460043  0.99953766    -0.26400
C3919       C  0.22187523  0.82502410  0.52053767    -0.15700
C3920       C  0.23125133  0.84858493  0.50773082     0.36700
N3921       N  0.22300570  0.87231078  0.52396665    -0.89900
H3922       H  0.25645886  0.86696514  0.47047888     0.17800
H3923       H  0.22011674  0.78658917  0.00503082     0.17800
N3924       N  0.25174947  0.78334334  0.94960218    -0.88900
H3925       H  0.23161337  0.88799597  0.51164492     0.35200
H3926       H  0.22954661  0.87230034  0.54997017     0.40300
H3927       H  0.24423332  0.78641697  0.92449008     0.39900
H3928       H  0.24206873  0.76745861  0.95979448     0.34800
C3929       C  0.35801575  0.70915822  0.94144033    -0.27000
C3930       C  0.37293108  0.73128640  0.93740575    -0.15000
C3931       C  0.40001524  0.72871206  0.93614045     0.35600
C3932       C  0.41143860  0.70427932  0.93830275    -0.26400
C3933       C  0.39652798  0.68192773  0.94099018    -0.15700
C3934       C  0.36946176  0.68461273  0.94300311     0.36700
N3935       N  0.35340941  0.66253374  0.94704315    -0.89900
H3936       H  0.33727284  0.71081285  0.94220777     0.17800
H3937       H  0.43218112  0.70278097  0.93732686     0.17800
N3938       N  0.41647491  0.75061798  0.93334268    -0.88900
H3939       H  0.34065702  0.66193161  0.92587221     0.35200
H3940       H  0.34267380  0.66495889  0.97017243     0.40300
H3941       H  0.41203477  0.76344919  0.95386011     0.39900
H3942       H  0.41314554  0.75967363  0.90933344     0.34800
C3943       C  0.55093836  0.83921626  0.68805977    -0.27000
C3944       C  0.57300634  0.85359356  0.69624016    -0.15000
C3945       C  0.56987961  0.88004060  0.70512425     0.35600
C3946       C  0.54510587  0.89130408  0.70498342    -0.26400
C3947       C  0.52328505  0.87671738  0.69695516    -0.15700
C3948       C  0.52629023  0.85043220  0.68830030     0.36700
N3949       N  0.50420718  0.83524952  0.67938281    -0.89900
H3950       H  0.55287319  0.81910210  0.68079025     0.17800
H3951       H  0.54269869  0.91136849  0.71232642     0.17800
N3952       N  0.59171049  0.89541387  0.71446982    -0.88900
H3953       H  0.50956403  0.81624148  0.67369236     0.35200
H3954       H  0.49644947  0.84273470  0.65625224     0.40300
H3955       H  0.59891630  0.88830604  0.73816187     0.39900
H3956       H  0.58618229  0.91446990  0.71944002     0.34800
C3957       C  0.64204155  0.77414110  0.83201122    -0.27000
C3958       C  0.66513178  0.76187166  0.84191975    -0.15000
C3959       C  0.68843506  0.77254612  0.83122368     0.35600
C3960       C  0.68820270  0.79320010  0.80743220    -0.26400
C3961       C  0.66489392  0.80280738  0.79345342    -0.15700
C3962       C  0.64164733  0.79417718  0.80785906     0.36700
N3963       N  0.61728517  0.80344222  0.79583371    -0.89900
H3964       H  0.62382145  0.76697614  0.84129454     0.17800
H3965       H  0.70629374  0.79976688  0.79675329     0.17800
N3966       N  0.71213406  0.76124155  0.84220898    -0.88900
H3967       H  0.61547024  0.79920648  0.76899671     0.35200
H3968       H  0.61675436  0.82340808  0.79933496     0.40300
H3969       H  0.72318391  0.77560262  0.85409226     0.39900
H3970       H  0.72176174  0.75441274  0.81980785     0.34800
C3971       C  0.63197140  0.74924814  0.57423877    -0.27000
C3972       C  0.65688523  0.75188227  0.58770530    -0.15000
C3973       C  0.67596223  0.73378686  0.57777541     0.35600
C3974       C  0.67047549  0.71547042  0.55162878    -0.26400
C3975       C  0.64619637  0.71471085  0.53573875    -0.15700
C3976       C  0.62627129  0.73056398  0.54900041     0.36700
N3977       N  0.60048703  0.72922767  0.53573606    -0.89900
H3978       H  0.61669840  0.76196735  0.58325743     0.17800
H3979       H  0.68593781  0.70353165  0.54131864     0.17800
N3980       N  0.70136166  0.73458544  0.59197518    -0.88900
H3981       H  0.58841612  0.72499933  0.55696439     0.35200
H3982       H  0.59855816  0.71390925  0.51800049     0.40300
H3983       H  0.70029237  0.73127263  0.61903736     0.39900
H3984       H  0.70886718  0.75294663  0.58789804     0.34800
C3985       C  0.64795286  0.86111086  0.55818427    -0.27000
C3986       C  0.64376734  0.87265745  0.59142748    -0.15000
C3987       C  0.62926227  0.89566080  0.59304316     0.35600
C3988       C  0.61739362  0.90515034  0.56255014    -0.26400
C3989       C  0.61904549  0.89186923  0.53008074    -0.15700
C3990       C  0.63578226  0.87049051  0.52763164     0.36700
N3991       N  0.63836574  0.85661863  0.49504902    -0.89900
H3992       H  0.65848183  0.84309580  0.55651617     0.17800
H3993       H  0.60456890  0.92155090  0.56510518     0.17800
N3994       N  0.62414051  0.90833466  0.62599422    -0.88900
H3995       H  0.63235659  0.83771239  0.49907814     0.35200
H3996       H  0.66100051  0.86733648  0.99146940     0.40300
H3997       H  0.64171128  0.91286909  0.63762714     0.39900
H3998       H  0.61443744  0.89559790  0.64247357     0.34800
C3999       C  0.61772992  0.68454159  0.69248968    -0.27000
C4000       C  0.59092403  0.68278307  0.68908711    -0.15000
C4001       C  0.57616045  0.70568187  0.68840311     0.35600
C4002       C  0.58854225  0.72958278  0.69115555    -0.26400
C4003       C  0.61531230  0.73122774  0.69453499    -0.15700
C4004       C  0.62999053  0.70832951  0.69536358     0.36700
N4005       N  0.65743758  0.70860168  0.69744339    -0.89900
H4006       H  0.62937922  0.66726438  0.69292379     0.17800
H4007       H  0.57730479  0.74713930  0.68955288     0.17800
N4008       N  0.54877399  0.70469559  0.68412686    -0.88900
H4009       H  0.66269129  0.71787328  0.72083654     0.35200
H4010       H  0.66466095  0.71894375  0.67611922     0.40300
H4011       H  0.54513855  0.69702030  0.65910989     0.39900
H4012       H  0.54083791  0.72321802  0.68454331     0.34800
C4013       C  0.95192499  0.81500346  0.83420611    -0.27000
C4014       C  0.93251819  0.81925867  0.80923571    -0.15000
C4015       C  0.93930360  0.82768450  0.77541494     0.35600
C4016       C  0.96487765  0.83377909  0.76799531    -0.26400
C4017       C  0.98370985  0.83284560  0.79422487    -0.15700
C4018       C  0.97743306  0.82227430  0.82711194     0.36700
N4019       N  0.99646937  0.82077595  0.85411558    -0.89900
H4020       H  0.94696032  0.80799053  0.86014389     0.17800
H4021       H  0.96945139  0.84187735  0.74268889     0.17800
N4022       N  0.92010431  0.83094383  0.74889977    -0.88900
H4023       H  0.99787684  0.80158992  0.86197446     0.35200
H4024       H  0.99007541  0.83167571  0.87572572     0.40300
H4025       H  0.92515605  0.81942622  0.72722973     0.39900
H4026       H  0.92035181  0.85014566  0.74089309     0.34800
C4027       C  0.84472348  0.86726249  0.93487259    -0.27000
C4028       C  0.85790904  0.87054803  0.90284463    -0.15000
C4029       C  0.87811318  0.88839229  0.90155270     0.35600
C4030       C  0.88605031  0.90111174  0.93251889    -0.26400
C4031       C  0.87463882  0.89582076  0.96529136    -0.15700
C4032       C  0.85293387  0.87968692  0.96612625     0.36700
N4033       N  0.83592092  0.87954504  0.49675578    -0.89900
H4034       H  0.82960078  0.85305899  0.93620967     0.17800
H4035       H  0.90324233  0.91276510  0.93162155     0.17800
N4036       N  0.89235501  0.89160902  0.86955061    -0.88900
H4037       H  0.82040918  0.86710586  0.49324640     0.35200
H4038       H  0.82825043  0.89718473  0.50517499     0.40300
H4039       H  0.91144862  0.88641571  0.87425830     0.39900
H4040       H  0.89194254  0.91112511  0.86313917     0.34800
C4041       C  0.82032499  0.76816439  0.66331114    -0.27000
C4042       C  0.83742697  0.74732279  0.66125087    -0.15000
C4043       C  0.86069212  0.74841424  0.68039763     0.35600
C4044       C  0.86469609  0.76844030  0.70459535    -0.26400
C4045       C  0.84605376  0.78752454  0.70957279    -0.15700
C4046       C  0.82452368  0.78824790  0.68731470     0.36700
N4047       N  0.80601873  0.80857034  0.69086929    -0.89900
H4048       H  0.80324018  0.76848120  0.64712846     0.17800
H4049       H  0.88130383  0.76775441  0.72168766     0.17800
N4050       N  0.88046624  0.72948662  0.67502640    -0.88900
H4051       H  0.78827090  0.80027583  0.69654037     0.35200
H4052       H  0.80449214  0.81772627  0.66655147     0.40300
H4053       H  0.88468909  0.72101655  0.69918471     0.39900
H4054       H  0.89696711  0.73893970  0.66636300     0.34800
C4055       C  0.85282316  0.74583748  0.92995283    -0.27000
C4056       C  0.82888071  0.74737604  0.91302258    -0.15000
C4057       C  0.81225811  0.72614265  0.91490516     0.35600
C4058       C  0.81883798  0.70500447  0.93595791    -0.26400
C4059       C  0.84193042  0.70445639  0.95510907    -0.15700
C4060       C  0.85978268  0.72447500  0.95012578     0.36700
N4061       N  0.88050905  0.73023137  0.47883436    -0.89900
H4062       H  0.86657317  0.76127284  0.92713870     0.17800
H4063       H  0.80466264  0.69012178  0.94020076     0.17800
N4064       N  0.78816954  0.72646468  0.89687659    -0.88900
H4065       H  0.89614869  0.73346757  0.46211915     0.35200
H4066       H  0.88464457  0.71315304  0.49197647     0.40300
H4067       H  0.77354218  0.72440900  0.91558044     0.39900
H4068       H  0.78765087  0.71049329  0.87997767     0.34800
C4069       C  0.76873738  0.84558928  0.74763111    -0.27000
C4070       C  0.77185659  0.82434003  0.77019539    -0.15000
C4071       C  0.75719158  0.80194477  0.76267935     0.35600
C4072       C  0.73975712  0.80166888  0.73455305    -0.26400
C4073       C  0.73573230  0.82329100  0.71330790    -0.15700
C4074       C  0.75076920  0.84539672  0.71987944     0.36700
N4075       N  0.74860020  0.86771604  0.69822021    -0.89900
H4076       H  0.78045772  0.86253505  0.75146925     0.17800
H4077       H  0.72832145  0.78456376  0.73034946     0.17800
N4078       N  0.75974043  0.77883366  0.78261894    -0.88900
H4079       H  0.72988495  0.87489397  0.70010312     0.35200
H4080       H  0.75201597  0.86210092  0.67209558     0.40300
H4081       H  0.75577104  0.78311909  0.80900822     0.39900
H4082       H  0.77852756  0.77195934  0.78024339     0.34800
C4083       C  0.89009415  0.70838245  0.84289248    -0.27000
C4084       C  0.87240544  0.71770197  0.81805186    -0.15000
C4085       C  0.86560261  0.70191567  0.78916506     0.35600
C4086       C  0.87809621  0.67831160  0.78414172    -0.26400
C4087       C  0.89633628  0.66955872  0.80831762    -0.15700
C4088       C  0.90205736  0.68439720  0.83838138     0.36700
N4089       N  0.92057184  0.67546610  0.86353327    -0.89900
H4090       H  0.89505438  0.72000102  0.86566540     0.17800
H4091       H  0.87339702  0.66668733  0.76127463     0.17800
N4092       N  0.84578787  0.70942519  0.76523202    -0.88900
H4093       H  0.92233938  0.68860101  0.88438268     0.35200
H4094       H  0.93843696  0.67469733  0.85090005     0.40300
H4095       H  0.85346740  0.70954115  0.73980788     0.39900
H4096       H  0.83144600  0.69543111  0.76587040     0.34800
loop_ 
_geom_bond_atom_site_label_1 
_geom_bond_atom_site_label_2 
_geom_bond_distance 
_geom_bond_site_symmetry_2 
_ccdc_geom_bond_type 
O1          Cr19   2.005       .  S
O1            C9   1.259       .  A
O2          Cr19   1.980       .  S
O2            C3   1.268       .  A
C3            O4   1.271       .  A
C3         C2022   1.503       .  S
O4          Cr20   2.031       .  S
O5          Cr20   2.010       .  S
O5            C6   1.271       .  A
C6            O7   1.268       .  A
C6         C1980   1.487       .  S
O7          Cr21   2.004       .  S
O8          Cr21   1.958       .  S
O8            C9   1.254       .  A
C9         C2008   1.488       .  S
O10         Cr19   1.964       .  S
O10          C18   1.259       .  A
O11         Cr19   1.971       .  S
O11          C12   1.252       .  A
C12          O13   1.264       .  A
C12        C1997   1.459       .  S
O13         Cr20   2.008       .  S
O14         Cr20   2.011       .  S
O14          C15   1.265       .  A
C15          O16   1.254       .  A
C15        C1966   1.477       .  S
O16         Cr21   1.971       .  S
O17         Cr21   2.008       .  S
O17          C18   1.267       .  A
C18        C2036   1.481       .  S
Cr19         O22   1.785       .  S
Cr20         O22   1.779       .  S
Cr21         O22   1.775       .  S
O23         Cr41   1.986       .  S
O23          C31   1.258       .  A
O24         Cr41   1.986       .  S
O24          C25   1.265       .  A
C25          O26   1.262       .  A
C25        C2025   1.494       .  S
O26         Cr42   2.009       .  S
O27         Cr42   2.020       .  S
O27          C28   1.273       .  A
C28          O29   1.264       .  A
C28        C1938   1.485       .  S
O29         Cr43   1.993       .  S
O30         Cr43   1.966       .  S
O30          C31   1.259       .  A
C31        C1924   1.464       .  S
O32         Cr41   1.992       .  S
O32          C40   1.263       .  A
O33         Cr41   1.964       .  S
O33          C34   1.258       .  A
C34          O35   1.275       .  A
C34        C1913   1.478       .  S
O35         Cr42   2.017       .  S
O36         Cr42   2.019       .  S
O36          C37   1.264       .  A
C37          O38   1.258       .  A
C37        C1896   1.498       .  S
O38         Cr43   1.978       .  S
O39         Cr43   1.988       .  S
O39          C40   1.259       .  A
C40        C1955   1.479       .  S
Cr41         O44   1.789       .  S
Cr42         O44   1.790       .  S
Cr43         O44   1.778       .  S
O45         Cr63   1.949       .  S
O45          C53   1.256       .  A
O46         Cr63   1.991       .  S
O46          C47   1.258       .  A
C47          O48   1.271       .  A
C47        C1826   1.489       .  S
O48         Cr64   2.031       .  S
O49         Cr64   2.007       .  S
O49          C50   1.264       .  A
C50          O51   1.267       .  A
C50        C1868   1.505       .  S
O51         Cr65   1.981       .  S
O52         Cr65   2.006       .  S
O52          C53   1.263       .  A
C53        C1840   1.476       .  S
O54         Cr63   1.983       .  S
O54          C62   1.256       .  A
O55         Cr63   1.965       .  S
O55          C56   1.257       .  A
C56          O57   1.271       .  A
C56        C1812   1.492       .  S
O57         Cr64   2.023       .  S
O58       Cr2112   2.007       .  S
O58          C59   1.271   1_556  A
C59        O2108   1.254   1_554  A
C59        C1854   1.458       .  S
O60         Cr65   1.964       .  S
O60        C2107   1.257       .  A
O61         Cr65   1.994       .  S
O61          C62   1.262       .  A
C62        C1882   1.472       .  S
Cr63         O66   1.766       .  S
Cr64       O2106   2.001       .  S
Cr64         O66   1.774       .  S
Cr65         O66   1.783       .  S
O67         Cr85   1.958       .  S
O67          C75   1.256       .  A
O68         Cr85   1.998       .  S
O68          C69   1.268       .  A
C69          O70   1.277       .  A
C69        C1756   1.489       .  S
O70         Cr86   2.023       .  S
O71         Cr86   2.011       .  S
O71          C72   1.264       .  A
C72          O73   1.267       .  A
C72        C1871   1.489       .  S
O73         Cr87   1.987       .  S
O74         Cr87   1.986       .  S
O74          C75   1.258       .  A
C75        C1773   1.459       .  S
O76         Cr85   2.001       .  S
O76          C84   1.263       .  A
O77         Cr85   1.989       .  S
O77          C78   1.257       .  A
C78          O79   1.259       .  A
C78        C1745   1.482       .  S
O79         Cr86   1.993       .  S
O80         Cr86   2.023       .  S
O80        C2129   1.271   1_554  A
C81        O2128   1.271       .  A
C81        O2130   1.251       .  A
C81        C1787   1.462       .  S
O82         Cr87   1.961       .  S
O82        C2129   1.253   1_554  A
O83         Cr87   1.984       .  S
O83          C84   1.262       .  A
C84        C1798   1.490       .  S
Cr85         O88   1.774       .  S
Cr86         O88   1.781       .  S
Cr87         O88   1.789       .  S
O89        Cr107   1.991       .  S
O89          C97   1.268       .  A
O90        Cr107   2.017       .  S
O90          C91   1.270       .  A
C91          O92   1.267       .  A
C91        C1714   1.507       .  S
O92        Cr108   1.995       .  S
O93        Cr108   2.053       .  S
O93          C94   1.278       .  A
C94          O95   1.258       .  A
C94        C1689   1.484       .  S
O95        Cr109   1.958       .  S
O96        Cr109   1.946       .  S
O96          C97   1.255       .  A
C97        C1857   1.491       .  S
O98        Cr107   1.984       .  S
O98         C106   1.262       .  A
O99        Cr107   1.922       .  S
O99         C100   1.249       .  A
C100        O101   1.265       .  A
C100       C1843   1.461       .  S
O101       Cr108   2.020       .  S
O102       Cr108   1.993       .  S
O102        C103   1.257       .  A
C103        O104   1.254       .  A
C103       C1700   1.465       .  S
O104       Cr109   1.981       .  S
O105       Cr109   2.020       .  S
O105        C106   1.271       .  A
C106       C1728   1.486       .  S
Cr107       O110   1.771       .  S
Cr108       O110   1.788       .  S
Cr109       O110   1.766       .  S
O111       Cr129   2.010       .  S
O111        C119   1.262       .  A
O112       Cr129   1.982       .  S
O112        C113   1.269       .  A
C113        O114   1.272       .  A
C113       C1717   1.513       .  S
O114       Cr130   2.036       .  S
O115       Cr130   2.018       .  S
O115        C116   1.272       .  A
C116        O117   1.266       .  A
C116       C1661   1.489       .  S
O117       Cr131   1.999       .  S
O118       Cr131   1.954       .  S
O118        C119   1.254       .  A
C119       C1784   1.494       .  S
O120       Cr129   1.979       .  S
O120        C128   1.262       .  A
O121       Cr129   1.974       .  S
O121        C122   1.255       .  A
C122        O123   1.269       .  A
C122       C1770   1.466       .  S
O123       Cr130   2.007       .  S
O124       Cr130   2.033       .  S
O124        C125   1.269       .  A
C125        O126   1.250       .  A
C125       C1644   1.477       .  S
O126       Cr131   1.960       .  S
O127       Cr131   1.990       .  S
O127        C128   1.262       .  A
C128       C1672   1.475       .  S
Cr129       O132   1.786       .  S
Cr130       O132   1.780       .  S
Cr131       O132   1.771       .  S
O133      Cr2199   1.957   1_554  S
O133        C141   1.256       .  A
O134      Cr2199   1.996   1_554  S
O134        C135   1.267       .  A
C135       O2184   1.277   1_554  A
C135       C1563   1.495       .  S
O136       Cr152   2.020       .  S
O136       C2183   1.276       .  A
O137       Cr152   2.024       .  S
O137        C138   1.267       .  A
C138        O139   1.270       .  A
C138       C1616   1.506       .  S
O139       Cr153   1.988       .  S
O140       Cr153   2.007       .  S
O140       C2189   1.262       .  A
C141       O2188   1.258   1_554  A
C141       C1574   1.478   1_655  S
O142       Cr151   1.995       .  S
O142        C150   1.261   1_655  A
O143       Cr151   1.969       .  S
O143        C144   1.252       .  A
C144        O145   1.262       .  A
C144       C1605   1.474       .  S
O145       Cr152   2.004       .  S
O146       Cr152   2.013       .  S
O146        C147   1.269       .  A
C147        O148   1.256       .  A
C147       C1588   1.461       .  S
O148       Cr153   1.969       .  S
O149       Cr153   1.988       .  S
O149        C150   1.262   1_655  A
C150       C1630   1.475       .  S
Cr151      O2181   1.956       .  S
Cr151      O2182   2.001       .  S
Cr151       O154   1.770       .  S
Cr152       O154   1.784       .  S
Cr153       O154   1.787       .  S
O155       Cr173   1.981       .  S
O155        C163   1.264       .  A
O156       Cr173   1.976       .  S
O156        C157   1.261       .  A
C157        O158   1.278       .  A
C157       C1518   1.504       .  S
O158       Cr174   2.056       .  S
O159       Cr174   2.008       .  S
O159        C160   1.274       .  A
C160        O161   1.264       .  A
C160       C1619   1.509       .  S
O161       Cr175   1.995       .  S
O162       Cr175   1.989       .  S
O162        C163   1.267       .  A
C163       C1535   1.477   1_655  S
O164       Cr173   2.010       .  S
O164        C172   1.266       .  A
O165       Cr173   1.997       .  S
O165        C166   1.260       .  A
C166        O167   1.256       .  A
C166       C2039   1.463       .  S
O167       Cr174   1.973       .  S
O168       Cr174   2.019       .  S
O168        C169   1.263       .  A
C169        O170   1.255       .  A
C169       C1549   1.458       .  S
O170       Cr175   1.958       .  S
O171       Cr175   1.976   1_455  S
O171        C172   1.256   1_455  A
C172       C1647   1.473   1_655  S
Cr173       O176   1.777       .  S
Cr174       O176   1.793       .  S
Cr175       O176   1.765       .  S
O177       Cr195   1.966       .  S
O177        C185   1.259       .  A
O178       Cr195   2.003       .  S
O178        C179   1.269       .  A
C179        O180   1.275       .  A
C179       C1462   1.486       .  S
O180       Cr196   2.012       .  S
O181       Cr196   2.045       .  S
O181        C182   1.273       .  A
C182        O183   1.266       .  A
C182       C1504   1.501       .  S
O183       Cr197   1.976       .  S
O184       Cr197   2.004       .  S
O184        C185   1.262       .  A
C185       C1476   1.482       .  S
O186       Cr195   2.004       .  S
O186        C194   1.264       .  A
O187       Cr195   1.976       .  S
O187        C188   1.256       .  A
C188        O189   1.265       .  A
C188       C1952   1.496       .  S
O189       Cr196   2.018       .  S
O190       Cr196   2.017       .  S
O190        C191   1.267       .  A
C191        O192   1.253       .  A
C191       C1490   1.460       .  S
O192       Cr197   1.972       .  S
O193       Cr197   1.965       .  S
O193        C194   1.257       .  A
C194       C1703   1.480       .  S
Cr195       O198   1.772       .  S
Cr196       O198   1.784       .  S
Cr197       O198   1.781       .  S
O199      Cr2265   1.970       .  S
O199        C207   1.261       .  A
O200      Cr2265   1.975       .  S
O200        C201   1.261       .  A
C201       O2250   1.275       .  A
C201       C1392   1.497       .  S
O202       Cr218   2.044       .  S
O202       C2249   1.276   1_554  A
O203       Cr218   1.991       .  S
O203        C204   1.269       .  A
C204        O205   1.270       .  A
C204       C1507   1.507       .  S
O205       Cr219   2.018       .  S
O206       Cr219   1.989       .  S
O206       C2255   1.266   1_554  A
C207       O2254   1.264       .  A
C207       C1409   1.477       .  S
O208       Cr217   2.003       .  S
O208        C216   1.266       .  A
O209       Cr217   1.987       .  S
O209        C210   1.257       .  A
C210        O211   1.260       .  A
C210       C1437   1.474       .  S
O211       Cr218   1.993       .  S
O212       Cr218   2.021       .  S
O212        C213   1.263       .  A
C213        O214   1.251       .  A
C213       C1423   1.461       .  S
O214       Cr219   1.945       .  S
O215       Cr219   1.984       .  S
O215        C216   1.261       .  A
C216       C1451   1.467       .  S
Cr217      O2247   1.963   1_554  S
Cr217      O2248   1.970   1_554  S
Cr217       O220   1.773       .  S
Cr218       O220   1.787       .  S
Cr219       O220   1.770       .  S
O221       Cr239   2.014       .  S
O221        C229   1.267       .  A
O222       Cr239   1.993       .  S
O222        C223   1.270       .  A
C223        O224   1.265       .  A
C223       C1378   1.501       .  S
O224       Cr240   2.003       .  S
O225       Cr240   2.006       .  S
O225        C226   1.270       .  A
C226        O227   1.267       .  A
C226       C1339   1.479       .  S
O227       Cr241   1.999       .  S
O228       Cr241   1.965       .  S
O228        C229   1.257       .  A
C229       C1364   1.491       .  S
O230       Cr239   1.978       .  S
O230        C238   1.259       .  A
O231       Cr239   1.972       .  S
O231       C2280   1.257       .  A
C232        O233   1.267   1_554  A
C232       O2279   1.251   1_554  A
C232       C1353   1.459       .  S
O233      Cr2288   2.015       .  S
O234       Cr240   1.998       .  S
O234        C235   1.262       .  A
C235        O236   1.255       .  A
C235       C1325   1.481       .  S
O236       Cr241   1.975       .  S
O237       Cr241   1.995       .  S
O237        C238   1.261       .  A
C238       C1602   1.477       .  S
Cr239       O242   1.781       .  S
Cr240      O2281   2.002       .  S
Cr240       O242   1.779       .  S
Cr241       O242   1.771       .  S
O243       Cr261   2.000       .  S
O243        C251   1.262       .  A
O244       Cr261   1.982       .  S
O244        C245   1.268       .  A
C245        O246   1.265       .  A
C245       C1381   1.491       .  S
O246       Cr262   2.011       .  S
O247       Cr262   2.016       .  S
O247        C248   1.272       .  A
C248        O249   1.266       .  A
C248       C1311   1.485       .  S
O249       Cr263   2.001       .  S
O250       Cr263   1.958       .  S
O250        C251   1.257       .  A
C251       C1297   1.477       .  S
O252       Cr261   1.979       .  S
O252        C260   1.262       .  A
O253       Cr261   1.971       .  S
O253       C2302   1.255       .  A
C254       O2301   1.256       .  A
C254       O2303   1.267       .  A
C254       C1283   1.456       .  S
O255       Cr262   2.014       .  S
O255       C2302   1.269       .  A
O256       Cr262   1.995       .  S
O256        C257   1.262       .  A
C257        O258   1.256       .  A
C257       C1266   1.481       .  S
O258       Cr263   1.978       .  S
O259       Cr263   1.996       .  S
O259        C260   1.261       .  A
C260       C1434   1.485       .  S
Cr261       O264   1.781       .  S
Cr262       O264   1.775       .  S
Cr263       O264   1.773       .  S
O265      Cr2331   1.962   1_554  S
O265        C273   1.256       .  A
O266      Cr2331   1.989   1_554  S
O266        C267   1.264       .  A
C267       O2316   1.273   1_554  A
C267       C1196   1.483       .  S
O268       Cr284   2.014       .  S
O268       C2315   1.275       .  A
O269       Cr284   2.020       .  S
O269        C270   1.266       .  A
C270        O271   1.269       .  A
C270       C1227   1.500       .  S
O271       Cr285   1.989       .  S
O272       Cr285   2.002       .  S
O272       C2321   1.262       .  A
C273       O2320   1.264   1_554  A
C273       C1238   1.483   1_455  S
O274       Cr283   1.989       .  S
O274        C282   1.261   1_455  A
O275       Cr283   1.980       .  S
O275        C276   1.255       .  A
C276        O277   1.259       .  A
C276       C1210   1.488       .  S
O277       Cr284   2.000       .  S
O278       Cr284   2.017       .  S
O278        C279   1.270       .  A
C279        O280   1.256       .  A
C279       C1255   1.463       .  S
O280       Cr285   1.973       .  S
O281       Cr285   1.975       .  S
O281        C282   1.261   1_455  A
C282       C1322   1.465       .  S
Cr283      O2313   1.963       .  S
Cr283      O2314   1.996       .  S
Cr283       O286   1.775       .  S
Cr284       O286   1.784       .  S
Cr285       O286   1.790       .  S
O287       Cr305   1.977       .  S
O287        C295   1.264       .  A
O288       Cr305   1.970       .  S
O288        C289   1.263       .  A
C289        O290   1.283       .  A
C289       C1759   1.502       .  S
O290       Cr306   2.070       .  S
O291       Cr306   2.001       .  S
O291        C292   1.272       .  A
C292        O293   1.268       .  A
C292       C1224   1.510       .  S
O293       Cr307   2.014       .  S
O294       Cr307   1.978       .  S
O294        C295   1.266       .  A
C295       C1168   1.482   1_455  S
O296       Cr305   2.018       .  S
O296        C304   1.267       .  A
O297       Cr305   1.984       .  S
O297        C298   1.259       .  A
C298        O299   1.261       .  A
C298       C1675   1.474       .  S
O299       Cr306   1.988       .  S
O300       Cr306   2.059       .  S
O300        C301   1.268       .  A
C301        O302   1.241       .  A
C301       C1182   1.479       .  S
O302       Cr307   1.943       .  S
O303       Cr307   1.977   1_655  S
O303        C304   1.254   1_655  A
C304       C1969   1.471   1_455  S
Cr305       O308   1.762       .  S
Cr306       O308   1.792       .  S
Cr307       O308   1.756       .  S
O309       Cr327   2.002       .  S
O309        C317   1.260       .  A
O310       Cr327   1.990       .  S
O310        C311   1.270       .  A
C311        O312   1.269       .  A
C311       C1115   1.513       .  S
O312       Cr328   2.026       .  S
O313       Cr328   2.025       .  S
O313        C314   1.278       .  A
C314        O315   1.266       .  A
C314       C1129   1.490       .  S
O315       Cr329   1.990       .  S
O316       Cr329   1.958       .  S
O316        C317   1.254       .  A
C317       C1157   1.477       .  S
O318       Cr327   1.980       .  S
O318        C326   1.262       .  A
O319       Cr327   1.966       .  S
O319       C2368   1.252       .  A
C320        O321   1.271   1_554  A
C320       O2367   1.253   1_554  A
C320       C1140   1.459       .  S
O321      Cr2376   2.019       .  S
O322       Cr328   2.000       .  S
O322        C323   1.261       .  A
C323        O324   1.257       .  A
C323       C1633   1.493       .  S
O324       Cr329   1.984       .  S
O325       Cr329   1.998       .  S
O325        C326   1.263       .  A
C326       C1213   1.473       .  S
Cr327       O330   1.793       .  S
Cr328      O2369   2.024       .  S
Cr328       O330   1.780       .  S
Cr329       O330   1.774       .  S
O331       Cr349   1.994       .  S
O331        C339   1.269       .  A
O332       Cr349   2.027       .  S
O332        C333   1.275       .  A
C333        O334   1.275       .  A
C333       C1112   1.517       .  S
O334       Cr350   2.003       .  S
O335       Cr350   2.071       .  S
O335        C336   1.283       .  A
C336        O337   1.258       .  A
C336       C1059   1.490       .  S
O337       Cr351   1.961       .  S
O338       Cr351   1.936       .  S
O338        C339   1.251       .  A
C339       C1084   1.485       .  S
O340       Cr349   1.985       .  S
O340        C348   1.260       .  A
O341       Cr349   1.942       .  S
O341       C2390   1.243       .  A
C342       O2389   1.245       .  A
C342       O2391   1.264       .  A
C342       C1070   1.471       .  S
O343       Cr350   2.020       .  S
O343       C2390   1.262       .  A
O344       Cr350   2.014       .  S
O344        C345   1.261       .  A
C345        O346   1.252       .  A
C345       C1448   1.487       .  S
O346       Cr351   1.968       .  S
O347       Cr351   2.002       .  S
O347        C348   1.265       .  A
C348       C1098   1.462       .  S
Cr349       O352   1.765       .  S
Cr350       O352   1.787       .  S
Cr351       O352   1.760       .  S
O353       Cr371   2.012       .  S
O353       C2409   1.266   1_554  A
O354       Cr371   1.985       .  S
O354        C355   1.267       .  A
C355        O356   1.263       .  A
C355       C1028   1.506       .  S
O356       Cr372   2.010       .  S
O357       Cr372   2.034       .  S
O357       C2406   1.275   1_554  A
C358        O359   1.262       .  A
C358       O2405   1.273       .  A
C358       C1658   1.493       .  S
O359      Cr2421   1.991       .  S
O360      Cr2421   1.959       .  S
O360        C361   1.260       .  A
C361       O2401   1.263       .  A
C361       C1546   1.465   1_455  S
O362       Cr371   1.987       .  S
O362        C370   1.259       .  A
O363       Cr371   1.969       .  S
O363        C364   1.260       .  A
C364        O365   1.275       .  A
C364       C1532   1.470       .  S
O365       Cr372   2.012       .  S
O366       Cr372   2.028       .  S
O366        C367   1.267       .  A
C367        O368   1.255       .  A
C367       C1801   1.483       .  S
O368       Cr373   1.974       .  S
O369       Cr373   1.973       .  S
O369        C370   1.255       .  A
C370       C1045   1.468   1_455  S
Cr371       O374   1.791       .  S
Cr372       O374   1.786       .  S
Cr373      O2407   1.987   1_554  S
Cr373      O2408   1.958   1_554  S
Cr373       O374   1.770       .  S
O375       Cr393   1.997       .  S
O375        C383   1.262       .  A
O376       Cr393   1.990       .  S
O376        C377   1.270       .  A
C377        O378   1.264       .  A
C377       C1031   1.504       .  S
O378       Cr394   2.010       .  S
O379       Cr394   2.017       .  S
O379        C380   1.274       .  A
C380        O381   1.268       .  A
C380       C1126   1.491       .  S
O381       Cr395   2.006       .  S
O382       Cr395   1.960       .  S
O382        C383   1.258       .  A
C383       C1591   1.475   1_455  S
O384       Cr393   1.980       .  S
O384        C392   1.260       .  A
O385       Cr393   1.962       .  S
O385        C386   1.255       .  A
C386        O387   1.268       .  A
C386       C1577   1.457       .  S
O387       Cr394   2.012       .  S
O388       Cr394   1.993       .  S
O388        C389   1.259       .  A
C389        O390   1.256       .  A
C389       C1000   1.482       .  S
O390       Cr395   1.979       .  S
O391       Cr395   1.998       .  S
O391        C392   1.262       .  A
C392       C1014   1.478   1_455  S
Cr393       O396   1.790       .  S
Cr394       O396   1.782       .  S
Cr395       O396   1.778       .  S
O397       Cr415   2.008       .  S
O397       C2453   1.262   1_554  A
O398       Cr415   1.982       .  S
O398        C399   1.268       .  A
C399        O400   1.267       .  A
C399        C986   1.501       .  S
O400       Cr416   2.018       .  S
O401       Cr416   2.021       .  S
O401        C402   1.273   1_554  A
C402       O2451   1.262       .  A
C402       C4031   1.483       .  S
O403      Cr2465   1.979       .  S
O403       C2450   1.260       .  A
O404      Cr2465   1.962       .  S
O404        C405   1.259       .  A
C405       O2445   1.264       .  A
C405       C1185   1.476       .  S
O406       Cr415   1.989       .  S
O406        C414   1.261       .  A
O407       Cr415   1.966       .  S
O407        C408   1.255       .  A
C408        O409   1.271       .  A
C408       C1171   1.459       .  S
O409       Cr416   2.007       .  S
O410       Cr416   2.020       .  S
O410        C411   1.267       .  A
C411        O412   1.257       .  A
C411        C975   1.485       .  S
O412       Cr417   1.977       .  S
O413       Cr417   1.987       .  S
O413        C414   1.259       .  A
C414       C1742   1.476   1_655  S
Cr415       O418   1.785       .  S
Cr416       O418   1.780       .  S
Cr417      O2451   1.985   1_554  S
Cr417      O2452   1.961   1_554  S
Cr417       O418   1.765       .  S
O419       Cr437   1.999       .  S
O419        C427   1.263       .  A
O420       Cr437   1.987       .  S
O420        C421   1.268       .  A
C421        O422   1.265       .  A
C421        C989   1.496       .  S
O422       Cr438   2.010       .  S
O423       Cr438   2.007       .  S
O423        C424   1.272       .  A
C424        O425   1.269       .  A
C424       C1336   1.480       .  S
O425       Cr439   2.001       .  S
O426       Cr439   1.968       .  S
O426        C427   1.260       .  A
C427       C1252   1.487       .  S
O428       Cr437   1.974       .  S
O428        C436   1.259       .  A
O429       Cr437   1.968       .  S
O429        C430   1.254       .  A
C430        O431   1.270       .  A
C430       C1241   1.458       .  S
O431       Cr438   2.014       .  S
O432       Cr438   2.007       .  S
O432        C433   1.261       .  A
C433        O434   1.255       .  A
C433        C944   1.484       .  S
O434       Cr439   1.980       .  S
O435       Cr439   1.992       .  S
O435        C436   1.260       .  A
C436        C958   1.465   1_655  S
Cr437       O440   1.785       .  S
Cr438       O440   1.784       .  S
Cr439       O440   1.774       .  S
O441       Cr459   1.954       .  S
O441        C449   1.254       .  A
O442       Cr459   1.995       .  S
O442        C443   1.265       .  A
C443        O444   1.279       .  A
C443       C1521   1.492       .  S
O444       Cr460   2.029       .  S
O445       Cr460   2.038       .  S
O445        C446   1.270       .  A
C446        O447   1.268       .  A
C446        C933   1.511       .  S
O447       Cr461   1.986       .  S
O448       Cr461   1.998       .  S
O448        C449   1.263       .  A
C449       C1994   1.475       .  S
O450       Cr459   2.002       .  S
O450        C458   1.263       .  A
O451       Cr459   1.964       .  S
O451        C452   1.253       .  A
C452        O453   1.265       .  A
C452       C1042   1.491       .  S
O453       Cr460   2.016       .  S
O454       Cr460   2.021       .  S
O454       C2503   1.273   1_554  A
C455       O2502   1.271       .  A
C455       O2504   1.255       .  A
C455       C2011   1.464       .  S
O456       Cr461   1.967       .  S
O456       C2503   1.255   1_554  A
O457       Cr461   1.984       .  S
O457        C458   1.261       .  A
C458        C972   1.486       .  S
Cr459       O462   1.773       .  S
Cr460       O462   1.785       .  S
Cr461       O462   1.783       .  S
O463       Cr481   1.982       .  S
O463        C471   1.262       .  A
O464       Cr481   1.972       .  S
O464        C465   1.265       .  A
C465        O466   1.279       .  A
C465       C1465   1.503       .  S
O466       Cr482   2.054       .  S
O467       Cr482   2.007       .  S
O467        C468   1.272       .  A
C468        O469   1.270       .  A
C468        C930   1.520       .  S
O469       Cr483   2.014       .  S
O470       Cr483   1.983       .  S
O470        C471   1.265       .  A
C471       C1910   1.474       .  S
O472       Cr481   1.998       .  S
O472        C480   1.263       .  A
O473       Cr481   1.984       .  S
O473        C474   1.256       .  A
C474        O475   1.260       .  A
C474        C902   1.472       .  S
O475       Cr482   1.999       .  S
O476      Cr2530   2.027       .  S
O476        C477   1.265   1_556  A
C477       O2526   1.248   1_554  A
C477       C1927   1.454       .  S
O478       Cr483   1.944       .  S
O478       C2525   1.250       .  A
O479       Cr483   1.986       .  S
O479        C480   1.260       .  A
C480        C919   1.463       .  S
Cr481       O484   1.774       .  S
Cr482      O2524   2.024       .  S
Cr482       O484   1.783       .  S
Cr483       O484   1.765       .  S
O485       Cr503   1.960       .  S
O485        C493   1.256       .  A
O486       Cr503   2.002       .  S
O486        C487   1.265       .  A
C487        O488   1.272       .  A
C487       C1829   1.490       .  S
O488       Cr504   2.023       .  S
O489       Cr504   2.000       .  S
O489        C490   1.262       .  A
C490        O491   1.270       .  A
C490        C863   1.505       .  S
O491       Cr505   1.995       .  S
O492       Cr505   1.958       .  S
O492        C493   1.253       .  A
C493        C874   1.470       .  S
O494       Cr503   1.989       .  S
O494        C502   1.261       .  A
O495       Cr503   1.974       .  S
O495        C496   1.253       .  A
C496        O497   1.266       .  A
C496       C1731   1.492       .  S
O497       Cr504   2.014       .  S
O498       Cr504   2.037       .  S
O498        C499   1.278       .  A
C499        O500   1.248       .  A
C499        C888   1.466       .  S
O500       Cr505   1.937       .  S
O501       Cr505   2.005       .  S
O501        C502   1.267       .  A
C502       C1899   1.481       .  S
Cr503       O506   1.779       .  S
Cr504       O506   1.776       .  S
Cr505       O506   1.782       .  S
O507      Cr2573   1.962       .  S
O507        C515   1.260       .  A
O508      Cr2573   1.957       .  S
O508       C2557   1.257       .  A
C509        O510   1.280       .  A
C509       O2556   1.261   1_554  A
C509       C2869   1.492   1_554  S
O510       Cr526   2.057       .  S
O511       Cr526   1.995       .  S
O511        C512   1.269       .  A
C512        O513   1.268       .  A
C512        C860   1.507       .  S
O513       Cr527   2.009       .  S
O514       Cr527   1.992       .  S
O514       C2563   1.269   1_554  A
C515       O2562   1.268       .  A
C515        C832   1.483       .  S
O516       Cr525   2.007       .  S
O516        C524   1.265       .  A
O517       Cr525   1.985       .  S
O517        C518   1.256       .  A
C518        O519   1.254       .  A
C518       C1101   1.486       .  S
O519       Cr526   1.986       .  S
O520       Cr526   2.013       .  S
O520        C521   1.264       .  A
C521        O522   1.252       .  A
C521        C846   1.456       .  S
O522       Cr527   1.929       .  S
O523       Cr527   1.982       .  S
O523        C524   1.260       .  A
C524       C1269   1.475       .  S
Cr525      O2555   1.965   1_554  S
Cr525      O2556   1.966   1_554  S
Cr525       O528   1.770       .  S
Cr526       O528   1.785       .  S
Cr527       O528   1.773       .  S
O529       Cr547   1.963       .  S
O529        C537   1.257       .  A
O530       Cr547   1.988       .  S
O530        C531   1.263       .  A
C531        O532   1.272       .  A
C531        C818   1.482       .  S
O532       Cr548   2.017       .  S
O533       Cr548   2.023       .  S
O533        C534   1.267       .  A
C534        O535   1.264       .  A
C534        C793   1.495       .  S
O535       Cr549   1.979       .  S
O536       Cr549   1.990       .  S
O536        C537   1.258       .  A
C537       C1073   1.461       .  S
O538       Cr547   2.006       .  S
O538        C546   1.264       .  A
O539       Cr547   1.991       .  S
O539        C540   1.263       .  A
C540        O541   1.268       .  A
C540        C776   1.503       .  S
O541       Cr548   2.027       .  S
O542       Cr548   2.005       .  S
O542        C543   1.270       .  A
C543        O544   1.255       .  A
C543       C1087   1.450       .  S
O544       Cr549   1.966       .  S
O545       Cr549   1.995       .  S
O545        C546   1.265       .  A
C546        C804   1.491       .  S
Cr547       O550   1.769       .  S
Cr548       O550   1.785       .  S
Cr549       O550   1.789       .  S
O551       Cr569   1.966       .  S
O551        C559   1.257       .  A
O552       Cr569   1.995       .  S
O552        C553   1.265       .  A
C553        O554   1.271       .  A
C553       C1199   1.482       .  S
O554       Cr570   2.012       .  S
O555       Cr570   2.013       .  S
O555        C556   1.268       .  A
C556        O557   1.270       .  A
C556        C790   1.499       .  S
O557       Cr571   1.988       .  S
O558       Cr571   2.001       .  S
O558        C559   1.263       .  A
C559       C1143   1.485       .  S
O560       Cr569   1.990       .  S
O560        C568   1.259       .  A
O561       Cr569   1.969       .  S
O561        C562   1.255       .  A
C562        O563   1.263       .  A
C562        C961   1.486       .  S
O563       Cr570   2.008       .  S
O564       Cr570   2.013       .  S
O564        C565   1.268       .  A
C565        O566   1.254       .  A
C565       C1154   1.460       .  S
O566       Cr571   1.970       .  S
O567       Cr571   1.987       .  S
O567        C568   1.261       .  A
C568       C1003   1.462       .  S
Cr569       O572   1.773       .  S
Cr570       O572   1.780       .  S
Cr571       O572   1.783       .  S
O573       Cr591   1.964       .  S
O573       C2629   1.261       .  A
O574       Cr591   1.985       .  S
O574        C575   1.262       .  A
C575        O576   1.271       .  A
C575        C765   1.506       .  S
O576       Cr592   2.018       .  S
O577       Cr592   2.061       .  S
O577       C2626   1.281       .  A
C578        O579   1.259       .  A
C578       O2625   1.280   1_554  A
C578       C1941   1.498       .  S
O579      Cr2641   1.962   1_554  S
O580      Cr2641   1.982   1_554  S
O580        C581   1.268       .  A
C581       O2621   1.261   1_554  A
C581        C891   1.448       .  S
O582       Cr591   1.978       .  S
O582        C590   1.255       .  A
O583       Cr591   1.923       .  S
O583        C584   1.248       .  A
C584        O585   1.270       .  A
C584        C877   1.448       .  S
O585       Cr592   2.022       .  S
O586       Cr592   1.981       .  S
O586        C587   1.256       .  A
C587        O588   1.257       .  A
C587        C916   1.482       .  S
O588       Cr593   1.986       .  S
O589       Cr593   2.015       .  S
O589        C590   1.264       .  A
C590       C1815   1.489       .  S
Cr591       O594   1.762       .  S
Cr592       O594   1.780       .  S
Cr593      O2627   1.963       .  S
Cr593      O2628   1.976       .  S
Cr593       O594   1.764       .  S
O595       Cr613   1.993       .  S
O595        C603   1.259       .  A
O596       Cr613   1.988       .  S
O596        C597   1.266       .  A
C597        O598   1.265       .  A
C597        C762   1.506       .  S
O598       Cr614   2.015       .  S
O599       Cr614   2.018       .  S
O599        C600   1.272       .  A
C600        O601   1.265       .  A
C600       C1308   1.485       .  S
O601       Cr615   2.001       .  S
O602       Cr615   1.948       .  S
O602        C603   1.252       .  A
C603        C849   1.470       .  S
O604       Cr613   2.011       .  S
O604        C612   1.269       .  A
O605       Cr613   1.970       .  S
O605        C606   1.256       .  A
C606        O607   1.273       .  A
C606        C835   1.458       .  S
O607       Cr614   2.004       .  S
O608       Cr614   2.020       .  S
O608        C609   1.266       .  A
C609        O610   1.254       .  A
C609        C748   1.473       .  S
O610       Cr615   1.965       .  S
O611       Cr615   2.003       .  S
O611        C612   1.264       .  A
C612        C779   1.497       .  S
Cr613       O616   1.781       .  S
Cr614       O616   1.782       .  S
Cr615       O616   1.760       .  S
O617       Cr635   1.954       .  S
O617        C625   1.252       .  A
O618       Cr635   1.996       .  S
O618        C619   1.266       .  A
C619        O620   1.277       .  A
C619       C1560   1.493       .  S
O620       Cr636   2.028       .  S
O621       Cr636   2.029       .  S
O621        C622   1.270       .  A
C622        O623   1.269       .  A
C622        C734   1.499       .  S
O623       Cr637   1.983       .  S
O624       Cr637   2.007       .  S
O624        C625   1.261       .  A
C625       C1350   1.482       .  S
O626       Cr635   2.002       .  S
O626        C634   1.264       .  A
O627       Cr635   1.972       .  S
O627        C628   1.254       .  A
C628        O629   1.264       .  A
C628       C1017   1.484       .  S
O629       Cr636   2.010       .  S
O630       Cr636   2.022       .  S
O630        C631   1.271       .  A
C631        O632   1.254       .  A
C631       C1367   1.466       .  S
O632       Cr637   1.975       .  S
O633       Cr637   1.980       .  S
O633        C634   1.262       .  A
C634        C947   1.477       .  S
Cr635       O638   1.769       .  S
Cr636       O638   1.779       .  S
Cr637       O638   1.792       .  S
O639       Cr657   1.958       .  S
O639        C647   1.256       .  A
O640       Cr657   1.995       .  S
O640        C641   1.266       .  A
C641        O642   1.273       .  A
C641       C1395   1.483       .  S
O642       Cr658   2.009       .  S
O643       Cr658   2.025       .  S
O643        C644   1.269       .  A
C644        O645   1.268       .  A
C644        C737   1.499       .  S
O645       Cr659   1.986       .  S
O646       Cr659   1.998       .  S
O646        C647   1.260       .  A
C647       C1280   1.477       .  S
O648       Cr657   1.990       .  S
O648        C656   1.261       .  A
O649       Cr657   1.970       .  S
O649        C650   1.253       .  A
C650        O651   1.261       .  A
C650        C720   1.469       .  S
O651       Cr658   2.007       .  S
O652       Cr658   2.011       .  S
O652        C653   1.267       .  A
C653        O654   1.254       .  A
C653       C1294   1.457       .  S
O654       Cr659   1.964       .  S
O655       Cr659   1.987       .  S
O655        C656   1.262       .  A
C656        C751   1.486       .  S
Cr657       O660   1.771       .  S
Cr658       O660   1.785       .  S
Cr659       O660   1.787       .  S
O661       Cr679   2.006       .  S
O661       C2717   1.264       .  A
O662       Cr679   1.990       .  S
O662        C663   1.269       .  A
C663        O664   1.265       .  A
C663        C706   1.500       .  S
O664       Cr680   2.005       .  S
O665       Cr680   2.010       .  S
O665        C666   1.274       .  A
C666       O2715   1.269       .  A
C666       C3734   1.482       .  S
O667      Cr2729   1.995   1_554  S
O667       C2714   1.267       .  A
O668      Cr2729   1.964   1_554  S
O668        C669   1.258       .  A
C669       O2709   1.261   1_554  A
C669       C1493   1.481       .  S
O670       Cr679   1.966       .  S
O670        C678   1.257       .  A
O671       Cr679   1.973       .  S
O671        C672   1.256       .  A
C672        O673   1.272       .  A
C672       C1479   1.468       .  S
O673       Cr680   2.022       .  S
O674       Cr680   1.998       .  S
O674        C675   1.258       .  A
C675        O676   1.257       .  A
C675       C1885   1.488       .  S
O676       Cr681   1.981       .  S
O677       Cr681   2.002       .  S
O677        C678   1.264       .  A
C678        C905   1.488       .  S
Cr679       O682   1.782       .  S
Cr680       O682   1.780       .  S
Cr681      O2715   1.999       .  S
Cr681      O2716   1.960       .  S
Cr681       O682   1.776       .  S
O683       Cr701   2.001       .  S
O683        C691   1.260       .  A
O684       Cr701   1.977       .  S
O684        C685   1.265       .  A
C685        O686   1.268       .  A
C685        C709   1.494       .  S
O686       Cr702   2.021       .  S
O687       Cr702   2.016       .  S
O687        C688   1.270       .  A
C688        O689   1.264       .  A
C688       C1056   1.487       .  S
O689       Cr703   1.992       .  S
O690       Cr703   1.960       .  S
O690        C691   1.257       .  A
C691       C1420   1.466       .  S
O692       Cr701   1.985       .  S
O692        C700   1.261       .  A
O693       Cr701   1.963       .  S
O693        C694   1.256       .  A
C694        O695   1.273       .  A
C694       C1406   1.467       .  S
O695       Cr702   2.011       .  S
O696       Cr702   2.043       .  S
O696        C697   1.272       .  A
C697        O698   1.257       .  A
C697        C807   1.501       .  S
O698       Cr703   1.975       .  S
O699       Cr703   1.987       .  S
O699        C700   1.261       .  A
C700        C723   1.483       .  S
Cr701       O704   1.786       .  S
Cr702       O704   1.783       .  S
Cr703       O704   1.768       .  S
C705        C706   1.411       .  A
C705        C710   1.410       .  A
C705        H712   1.084       .  S
C706        C707   1.420       .  A
C707        C708   1.408       .  A
C707        N714   1.432       .  S
C708        C709   1.408       .  A
C708        H713   1.084       .  S
C709        C710   1.408       .  A
C710        N711   1.432       .  S
N711        H715   1.046       .  S
N711        H716   1.046       .  S
N714        H717   1.045       .  S
N714        H718   1.044       .  S
C719        C720   1.403       .  A
C719        C724   1.403       .  A
C719        H726   1.084       .  S
C720        C721   1.407       .  A
C721        C722   1.397       .  A
C721        N728   1.433       .  S
C722        C723   1.410       .  A
C722        H727   1.084       .  S
C723        C724   1.412       .  A
C724        N725   1.432       .  S
N725        H729   1.046       .  S
N725        H730   1.046       .  S
N728        H731   1.045       .  S
N728        H732   1.045       .  S
C733        C734   1.406       .  A
C733        C738   1.409       .  A
C733        H740   1.084       .  S
C734        C735   1.415       .  A
C735        C736   1.419       .  A
C735        N742   1.437       .  S
C736        C737   1.409       .  A
C736        H741   1.083       .  S
C737        C738   1.414       .  A
C738        N739   1.433       .  S
N739        H743   1.046       .  S
N739        H744   1.046       .  S
N742        H745   1.046       .  S
N742        H746   1.045       .  S
C747        C748   1.403       .  A
C747        C752   1.406       .  A
C747        H754   1.084       .  S
C748        C749   1.409       .  A
C749        C750   1.397       .  A
C749        N756   1.433       .  S
C750        C751   1.410       .  A
C750        H755   1.084       .  S
C751        C752   1.415       .  A
C752        N753   1.438       .  S
N753        H757   1.045       .  S
N753        H758   1.046       .  S
N756        H759   1.045       .  S
N756        H760   1.045       .  S
C761        C762   1.419       .  A
C761        C766   1.415   1_545  A
C761        H768   1.083       .  S
C762        C763   1.416   1_545  A
C763        C764   1.399       .  A
C763        N770   1.432   1_565  S
C764        C765   1.412       .  A
C764        H769   1.083       .  S
C765        C766   1.413       .  A
C766        N767   1.431       .  S
N767        H771   1.045       .  S
N767        H772   1.045       .  S
N770        H773   1.045   1_545  S
N770        H774   1.045       .  S
C775        C776   1.406       .  A
C775        C780   1.411       .  A
C775        H782   1.084       .  S
C776        C777   1.418       .  A
C777        C778   1.412       .  A
C777        N784   1.432       .  S
C778        C779   1.404       .  A
C778        H783   1.084       .  S
C779        C780   1.415       .  A
C780        N781   1.432       .  S
N781        H785   1.046       .  S
N781        H786   1.046       .  S
N784        H787   1.045       .  S
N784        H788   1.045       .  S
C789        C790   1.411       .  A
C789        C794   1.415       .  A
C789        H796   1.083       .  S
C790        C791   1.414       .  A
C791        C792   1.410       .  A
C791        N798   1.432       .  S
C792        C793   1.408       .  A
C792        H797   1.084       .  S
C793        C794   1.411       .  A
C794        N795   1.437       .  S
N795        H799   1.046       .  S
N795        H800   1.045       .  S
N798        H801   1.046       .  S
N798        H802   1.046       .  S
C803        C804   1.403       .  A
C803        C808   1.408       .  A
C803        H810   1.084       .  S
C804        C805   1.413       .  A
C805        C806   1.414       .  A
C805        N812   1.438       .  S
C806        C807   1.410       .  A
C806        H811   1.083       .  S
C807        C808   1.414       .  A
C808        N809   1.429       .  S
N809        H813   1.046       .  S
N809        H814   1.046       .  S
N812        H815   1.045       .  S
N812        H816   1.046       .  S
C817        C818   1.402       .  A
C817        C822   1.410       .  A
C817        H824   1.084       .  S
C818        C819   1.412       .  A
C819        C820   1.409       .  A
C819        N826   1.432       .  S
C820        C821   1.402       .  A
C820        H825   1.084       .  S
C821       C2557   1.488       .  S
C821        C822   1.414       .  A
C822        N823   1.432       .  S
N823        H827   1.045       .  S
N823        H828   1.045       .  S
N826        H829   1.046       .  S
N826        H830   1.045       .  S
C831        C832   1.416       .  A
C831        C836   1.385       .  A
C831        H838   1.083       .  S
C832        C833   1.404       .  A
C833        C834   1.408       .  A
C833       N2888   1.431       .  S
C834        C835   1.415       .  A
C834        H839   1.085       .  S
C835        C836   1.400       .  A
C836        N837   1.434       .  S
N837        H841   1.045       .  S
N837        H842   1.045       .  S
N840       C2881   1.436       .  S
N840        H843   1.045       .  S
N840        H844   1.046       .  S
C845        C846   1.398       .  A
C845        C850   1.387       .  A
C845        H852   1.085       .  S
C846        C847   1.404       .  A
C847        C848   1.404       .  A
C847        N854   1.436       .  S
C848        C849   1.409       .  A
C848        H853   1.083       .  S
C849        C850   1.413       .  A
C850        N851   1.434       .  S
N851        H855   1.046       .  S
N851        H856   1.046       .  S
N854        H857   1.046       .  S
N854        H858   1.045       .  S
C859        C860   1.414       .  A
C859        C864   1.410   1_545  A
C859        H866   1.084       .  S
C860        C861   1.414       .  A
C861        C862   1.412   1_545  A
C861        N868   1.432       .  S
C862        C863   1.416       .  A
C862        H867   1.084       .  S
C863        C864   1.411       .  A
C864        N865   1.433       .  S
N865        H869   1.044   1_565  S
N865        H870   1.046       .  S
N868        H871   1.046       .  S
N868        H872   1.044       .  S
C873        C874   1.403       .  A
C873        C878   1.390       .  A
C873        H880   1.084       .  S
C874        C875   1.417       .  A
C875        C876   1.394       .  A
C875        N882   1.432       .  S
C876        C877   1.393       .  A
C876        H881   1.084       .  S
C877        C878   1.413       .  A
C878        N879   1.435       .  S
N879        H883   1.043       .  S
N879        H884   1.046       .  S
N882        H885   1.046       .  S
N882        H886   1.043       .  S
C887        C888   1.412       .  A
C887        C892   1.385       .  A
C887        H894   1.084       .  S
C888        C889   1.400       .  A
C889        C890   1.409       .  A
C889        N896   1.431       .  S
C890        C891   1.412       .  A
C890        H895   1.084       .  S
C891        C892   1.400       .  A
C892        N893   1.438       .  S
N893        H897   1.046       .  S
N893        H898   1.045       .  S
N896        H899   1.043       .  S
N896        H900   1.045       .  S
C901        C902   1.400       .  A
C901        C906   1.392       .  A
C901        H908   1.083       .  S
C902        C903   1.407       .  A
C903        C904   1.407       .  A
C903        N910   1.438       .  S
C904        C905   1.411       .  A
C904        H909   1.082       .  S
C905        C906   1.421       .  A
C906        N907   1.432       .  S
N907        H911   1.044       .  S
N907        H912   1.044       .  S
N910        H913   1.046       .  S
N910        H914   1.045       .  S
C915        C916   1.409       .  A
C915        C920   1.407       .  A
C915        H922   1.084       .  S
C916        C917   1.412       .  A
C917        C918   1.397       .  A
C917        N924   1.433       .  S
C918        C919   1.399       .  A
C918        H923   1.083       .  S
C919        C920   1.406       .  A
C920        N921   1.437       .  S
N921        H925   1.046       .  S
N921        H926   1.045       .  S
N924        H927   1.046       .  S
N924       H2976   1.045       .  S
H928       N2972   1.046       .  S
C929        C930   1.412       .  A
C929        C934   1.409       .  A
C929        H936   1.083       .  S
C930       C2979   1.424       .  A
C931        C932   1.420   1_556  A
C931       C2978   1.425       .  A
C931        N938   1.431       .  S
C932        C933   1.412       .  A
C932        H937   1.083       .  S
C933       C2982   1.413       .  A
C934       C2981   1.415       .  A
C934        N935   1.433       .  S
N935        H939   1.045       .  S
N935        H940   1.046       .  S
N938        H941   1.045       .  S
N938        H942   1.045       .  S
C943        C944   1.406       .  A
C943        C948   1.406       .  A
C943        H950   1.081       .  S
C944        C945   1.410       .  A
C945        C946   1.404       .  A
C945        N952   1.432       .  S
C946        C947   1.404       .  A
C946        H951   1.084       .  S
C947        C948   1.411       .  A
C948        N949   1.438       .  S
N949        H953   1.046       .  S
N949        H954   1.046       .  S
N952        H955   1.046       .  S
N952        H956   1.046       .  S
C957        C958   1.398       .  A
C957        C962   1.399       .  A
C957        H964   1.085       .  S
C958        C959   1.406       .  A
C959        C960   1.407       .  A
C959        N966   1.437   1_455  S
C960        C961   1.410       .  A
C960        H965   1.083       .  S
C961        C962   1.414       .  A
C962        N963   1.432       .  S
N963        H967   1.045       .  S
N963        H968   1.046       .  S
N966        H969   1.046       .  S
N966        H970   1.045   1_655  S
C971        C972   1.407       .  A
C971        C976   1.406       .  A
C971        H978   1.084       .  S
C972        C973   1.412       .  A
C973        C974   1.404       .  A
C973        N980   1.433       .  S
C974        C975   1.405       .  A
C974        H979   1.084       .  S
C975        C976   1.410       .  A
C976        N977   1.432       .  S
N977        H981   1.046       .  S
N977        H982   1.046       .  S
N980        H983   1.046       .  S
N980        H984   1.046       .  S
C985        C986   1.408       .  A
C985        C990   1.411   1_565  A
C985        H992   1.084       .  S
C986        C987   1.417       .  A
C987        C988   1.415   1_565  A
C987        N994   1.437       .  S
C988        C989   1.407       .  A
C988        H993   1.084       .  S
C989        C990   1.414       .  A
C990        N991   1.432       .  S
N991        H995   1.046       .  S
N991        H996   1.046       .  S
N994        H997   1.045       .  S
N994        H998   1.046       .  S
C999       C1000   1.408       .  A
C999       C1004   1.407       .  A
C999       H1006   1.083       .  S
C1000      C1001   1.416       .  A
C1001      C1002   1.400       .  A
C1001      N1008   1.438       .  S
C1002      C1003   1.397       .  A
C1002      H1007   1.085       .  S
C1003      C1004   1.406       .  A
C1004      N1005   1.437       .  S
N1005      H1009   1.045       .  S
N1005      H1010   1.046       .  S
N1008      H1011   1.046       .  S
N1008      H1012   1.046       .  S
C1013      C1014   1.404       .  A
C1013      C1018   1.402       .  A
C1013      H1020   1.084       .  S
C1014      C1015   1.408       .  A
C1015      C1016   1.401       .  A
C1015      N1022   1.433       .  S
C1016      C1017   1.406       .  A
C1016      H1021   1.083       .  S
C1017      C1018   1.417       .  A
C1018      N1019   1.433       .  S
N1019      H1023   1.045       .  S
N1019      H1024   1.045       .  S
N1022      H1025   1.046       .  S
N1022      H1026   1.046       .  S
C1027      C1028   1.409       .  A
C1027      C1032   1.410       .  A
C1027      H1034   1.084       .  S
C1028      C1029   1.417       .  A
C1029      C1030   1.415       .  A
C1029      N1036   1.432       .  S
C1030      C1031   1.409       .  A
C1030      H1035   1.084       .  S
C1031      C1032   1.421       .  A
C1032      N1033   1.433       .  S
N1033      H1037   1.044       .  S
N1033      H1038   1.045       .  S
N1036      H1039   1.046       .  S
N1036      H1040   1.045       .  S
C1041      C1042   1.410       .  A
C1041      C1046   1.402       .  A
C1041      H1048   1.083       .  S
C1042      C1043   1.423       .  A
C1043      C1044   1.399       .  A
C1043      N1050   1.432       .  S
C1044      C1045   1.400       .  A
C1044      H1049   1.084       .  S
C1045      C1046   1.404       .  A
C1046      N1047   1.433       .  S
N1047      H1051   1.046       .  S
N1047      H1052   1.046       .  S
N1050      H1053   1.044       .  S
N1050      H1054   1.046       .  S
C1055      C1056   1.405       .  A
C1055      C1060   1.410       .  A
C1055      H1062   1.084       .  S
C1056      C1057   1.410       .  A
C1057      C1058   1.415       .  A
C1057      N1064   1.437       .  S
C1058      C1059   1.410       .  A
C1058      H1063   1.084       .  S
C1059      C1060   1.412       .  A
C1060      N1061   1.437       .  S
N1061      H1065   1.046       .  S
N1061      H1066   1.045       .  S
N1064      H1067   1.042       .  S
N1064      H1068   1.046       .  S
C1069      C1070   1.400       .  A
C1069      C1074   1.404       .  A
C1069      H1076   1.084       .  S
C1070      C1071   1.424       .  A
C1071      C1072   1.387       .  A
C1071      N3126   1.434       .  S
C1072      C1073   1.393       .  A
C1072      H1077   1.084       .  S
C1073      C1074   1.413       .  A
C1074      N1075   1.437       .  S
N1075      H1079   1.046       .  S
N1075      H1080   1.045       .  S
N1078      C3119   1.434   1_554  S
N1078      H1081   1.045       .  S
N1078      H1082   1.044       .  S
C1083      C1084   1.404       .  A
C1083      C1088   1.410       .  A
C1083      H1090   1.083       .  S
C1084      C1085   1.426       .  A
C1085      C1086   1.391       .  A
C1085      N1092   1.435       .  S
C1086      C1087   1.389       .  A
C1086      H1091   1.086       .  S
C1087      C1088   1.413       .  A
C1088      N1089   1.432       .  S
N1089      H1093   1.045       .  S
N1089      H1094   1.045       .  S
N1092      H1095   1.046       .  S
N1092      H1096   1.046       .  S
C1097      C1098   1.402       .  A
C1097      C1102   1.402       .  A
C1097      H1104   1.084       .  S
C1098      C1099   1.402       .  A
C1099      C1100   1.402       .  A
C1099      N1106   1.433       .  S
C1100      C1101   1.409       .  A
C1100      H1105   1.084       .  S
C1101      C1102   1.414       .  A
C1102      N1103   1.433       .  S
N1103      H1107   1.046       .  S
N1103      H1108   1.046       .  S
N1106      H1109   1.046       .  S
N1106      H1110   1.046       .  S
C1111      C1116   1.410       .  A
C1111      C3160   1.411       .  A
C1111      H1118   1.081       .  S
C1112      C1113   1.414       .  A
C1112      C3159   1.415       .  A
C1113      C1114   1.422   1_554  A
C1113      N1120   1.437       .  S
C1114      C3163   1.417       .  A
C1114      H1119   1.083       .  S
C1115      C1116   1.412       .  A
C1115      C3162   1.418       .  A
C1116      N1117   1.432       .  S
N1117      H1121   1.046       .  S
N1117      H1122   1.046       .  S
N1120      H1123   1.046       .  S
N1120      H1124   1.045       .  S
C1125      C1126   1.407       .  A
C1125      C1130   1.418       .  A
C1125      H1132   1.083       .  S
C1126      C1127   1.410       .  A
C1127      C1128   1.410       .  A
C1127      N1134   1.433       .  S
C1128      C1129   1.406       .  A
C1128      H1133   1.084       .  S
C1129      C1130   1.413       .  A
C1130      N1131   1.437       .  S
N1131      H1135   1.046       .  S
N1131      H1136   1.046       .  S
N1134      H1137   1.046       .  S
N1134      H1138   1.045       .  S
C1139      C1140   1.400       .  A
C1139      C1144   1.399       .  A
C1139      H3194   1.085       .  S
C1140      C1141   1.407       .  A
C1141      C1142   1.402       .  A
C1141      N1148   1.433       .  S
C1142      C1143   1.407       .  A
C1142      H1147   1.084       .  S
C1143      C1144   1.422       .  A
C1144      N1145   1.433       .  S
N1145      H1149   1.045       .  S
N1145      H1150   1.045       .  S
H1146      C3187   1.085       .  S
N1148      H1151   1.046       .  S
N1148      H1152   1.045       .  S
C1153      C1154   1.396       .  A
C1153      C1158   1.399       .  A
C1153      H1160   1.084       .  S
C1154      C1155   1.411       .  A
C1155      C1156   1.404       .  A
C1155      N1162   1.432       .  S
C1156      C1157   1.402       .  A
C1156      H1161   1.084       .  S
C1157      C1158   1.416       .  A
C1158      N1159   1.433       .  S
N1159      H1163   1.046       .  S
N1159      H1164   1.046       .  S
N1162      H1165   1.045       .  S
N1162      H1166   1.045       .  S
C1167      C1168   1.414       .  A
C1167      C1172   1.392       .  A
C1167      H1174   1.083       .  S
C1168      C1169   1.409       .  A
C1169      C1170   1.409       .  A
C1169      N1176   1.437       .  S
C1170      C1171   1.412       .  A
C1170      H1175   1.085       .  S
C1171      C1172   1.396       .  A
C1172      N1173   1.434       .  S
N1173      H1177   1.046       .  S
N1173      H1178   1.045       .  S
N1176      H1179   1.046       .  S
N1176      H1180   1.046       .  S
C1181      C1182   1.400       .  A
C1181      C1186   1.410       .  A
C1181      H1188   1.084       .  S
C1182      C1183   1.420   1_455  A
C1183      C1184   1.391       .  A
C1183      N1190   1.435       .  S
C1184      C1185   1.395       .  A
C1184      H1189   1.085       .  S
C1185      C1186   1.418   1_655  A
C1186      N1187   1.432       .  S
N1187      H1191   1.046       .  S
N1187      H3240   1.045       .  S
N1190      H1193   1.046       .  S
N1190      H1194   1.045       .  S
H1192      N3235   1.046   1_554  S
C1195      C1196   1.406       .  A
C1195      C1200   1.415       .  A
C1195      H1202   1.083       .  S
C1196      C1197   1.410       .  A
C1197      C1198   1.407       .  A
C1197      N1204   1.433       .  S
C1198      C1199   1.403       .  A
C1198      H1203   1.082       .  S
C1199      C1200   1.411       .  A
C1200      N1201   1.437       .  S
N1201      H1205   1.045       .  S
N1201      H1206   1.045       .  S
N1204      H1207   1.046       .  S
N1204      H1208   1.045       .  S
C1209      C1210   1.407       .  A
C1209      C1214   1.402       .  A
C1209      H1216   1.084       .  S
C1210      C1211   1.416       .  A
C1211      C1212   1.401       .  A
C1211      N1218   1.432       .  S
C1212      C1213   1.399       .  A
C1212      H1217   1.084       .  S
C1213      C1214   1.412       .  A
C1214      N1215   1.432       .  S
N1215      H1219   1.045       .  S
N1215      H1220   1.046       .  S
N1218      H1221   1.045       .  S
N1218      H1222   1.046       .  S
C1223      C1224   1.411       .  A
C1223      C1228   1.421   1_565  A
C1223      H1230   1.083       .  S
C1224      C1225   1.420       .  A
C1225      C1226   1.407   1_565  A
C1225      N1232   1.432       .  S
C1226      C1227   1.402       .  A
C1226      H1231   1.084       .  S
C1227      C1228   1.418       .  A
C1228      N1229   1.437       .  S
N1229      H1233   1.046   1_545  S
N1229      H1234   1.045       .  S
N1232      H1235   1.045   1_455  S
N1232      H1236   1.046       .  S
C1237      C1238   1.405       .  A
C1237      C1242   1.404       .  A
C1237      H1244   1.084       .  S
C1238      C1239   1.416       .  A
C1239      C1240   1.400       .  A
C1239      N1246   1.433   1_655  S
C1240      C1241   1.398       .  A
C1240      H1245   1.085       .  S
C1241      C1242   1.417       .  A
C1242      N1243   1.438       .  S
N1243      H1247   1.045       .  S
N1243      H1248   1.045       .  S
N1246      H1249   1.046       .  S
N1246      H1250   1.045       .  S
C1251      C1252   1.409       .  A
C1251      C1256   1.405   1_655  A
C1251      H1258   1.083       .  S
C1252      C1253   1.416   1_655  A
C1253      C1254   1.406       .  A
C1253      N1260   1.438       .  S
C1254      C1255   1.402       .  A
C1254      H1259   1.084       .  S
C1255      C1256   1.407       .  A
C1256      N1257   1.438       .  S
N1257      H1261   1.046   1_455  S
N1257      H1262   1.045       .  S
N1260      H1263   1.045       .  S
N1260      H1264   1.046       .  S
C1265      C1266   1.411       .  A
C1265      C1270   1.410       .  A
C1265      H1272   1.083       .  S
C1266      C1267   1.410       .  A
C1267      C1268   1.391       .  A
C1267      N1274   1.434       .  S
C1268      C1269   1.402       .  A
C1268      H1273   1.081       .  S
C1269      C1270   1.406       .  A
C1270      N3319   1.432       .  S
N1271      C3318   1.432       .  S
N1271      H1275   1.046       .  S
N1271      H3324   1.046       .  S
N1274      H1277   1.046   1_554  S
N1274      H1278   1.046       .  S
H1276      N3319   1.046       .  S
C1279      C1280   1.403       .  A
C1279      C1284   1.401       .  A
C1279      H1286   1.084       .  S
C1280      C1281   1.416       .  A
C1281      C1282   1.399       .  A
C1281      N1288   1.433       .  S
C1282      C1283   1.397       .  A
C1282      H1287   1.085       .  S
C1283      C1284   1.416       .  A
C1284      N1285   1.438       .  S
N1285      H1289   1.045       .  S
N1285      H1290   1.045       .  S
N1288      H1291   1.044       .  S
N1288      H1292   1.046       .  S
C1293      C1294   1.405       .  A
C1293      C1298   1.402       .  A
C1293      H1300   1.085       .  S
C1294      C1295   1.408       .  A
C1295      C1296   1.396       .  A
C1295      N1302   1.433       .  S
C1296      C1297   1.408       .  A
C1296      H1301   1.084       .  S
C1297      C1298   1.409       .  A
C1298      N1299   1.432       .  S
N1299      H1303   1.046       .  S
N1299      H1304   1.046       .  S
N1302      H1305   1.045       .  S
N1302      H1306   1.043       .  S
C1307      C1308   1.405       .  A
C1307      C1312   1.412       .  A
C1307      H1314   1.084       .  S
C1308      C1309   1.410       .  A
C1309      C1310   1.411       .  A
C1309      N1316   1.432       .  S
C1310      C1311   1.405       .  A
C1310      H1315   1.084       .  S
C1311      C1312   1.410       .  A
C1312      N1313   1.432       .  S
N1313      H1317   1.046       .  S
N1313      H1318   1.045       .  S
N1316      H1319   1.045       .  S
N1316      H1320   1.046       .  S
C1321      C1322   1.401       .  A
C1321      C1326   1.404       .  A
C1321      H1328   1.084       .  S
C1322      C1323   1.404       .  A
C1323      C1324   1.397       .  A
C1323      N1330   1.433       .  S
C1324      C1325   1.406       .  A
C1324      H1329   1.083       .  S
C1325      C1326   1.414       .  A
C1326      N1327   1.432       .  S
N1327      H1331   1.046       .  S
N1327      H1332   1.045       .  S
N1330      H1333   1.046       .  S
N1330      H1334   1.046       .  S
C1335      C1336   1.403       .  A
C1335      C1340   1.406       .  A
C1335      H1342   1.084       .  S
C1336      C1337   1.409       .  A
C1337      C1338   1.411       .  A
C1337      N1344   1.431       .  S
C1338      C1339   1.403       .  A
C1338      H1343   1.084       .  S
C1339      C1340   1.409       .  A
C1340      N1341   1.431       .  S
N1341      H1345   1.046       .  S
N1341      H1346   1.045       .  S
N1344      H1347   1.045       .  S
N1344      H1348   1.045       .  S
C1349      C1350   1.404       .  A
C1349      C1354   1.402       .  A
C1349      H1356   1.084       .  S
C1350      C1351   1.415       .  A
C1351      C1352   1.401       .  A
C1351      N1358   1.433       .  S
C1352      C1353   1.398       .  A
C1352      H1357   1.084       .  S
C1353      C1354   1.417       .  A
C1354      N1355   1.438       .  S
N1355      H1359   1.045       .  S
N1355      H3408   1.045       .  S
N1358      H1361   1.044       .  S
N1358      H1362   1.046       .  S
H1360      N3403   1.045       .  S
C1363      C1364   1.408       .  A
C1363      C1368   1.405       .  A
C1363      H1370   1.084       .  S
C1364      C1365   1.425       .  A
C1365      C1366   1.400       .  A
C1365      N1372   1.433       .  S
C1366      C1367   1.399       .  A
C1366      H1371   1.085       .  S
C1367      C1368   1.407       .  A
C1368      N1369   1.433       .  S
N1369      H1373   1.046       .  S
N1369      H1374   1.046       .  S
N1372      H1375   1.045       .  S
N1372      H1376   1.045       .  S
C1377      C1382   1.414   1_556  A
C1377      C3426   1.411       .  A
C1377      H1384   1.084       .  S
C1378      C1379   1.420       .  A
C1378      C3425   1.412       .  A
C1379      C1380   1.407       .  A
C1379      N1386   1.432       .  S
C1380      C3429   1.407       .  A
C1380      H1385   1.084       .  S
C1381      C1382   1.412       .  A
C1381      C3428   1.405       .  A
C1382      N1383   1.437       .  S
N1383      H1387   1.046       .  S
N1383      H1388   1.045       .  S
N1386      H1389   1.046       .  S
N1386      H1390   1.045       .  S
C1391      C1392   1.408       .  A
C1391      C1396   1.408       .  A
C1391      H1398   1.084       .  S
C1392      C1393   1.419       .  A
C1393      C1394   1.406       .  A
C1393      N1400   1.433       .  S
C1394      C1395   1.404       .  A
C1394      H1399   1.084       .  S
C1395      C1396   1.415       .  A
C1396      N1397   1.438       .  S
N1397      H1401   1.046       .  S
N1397      H1402   1.044       .  S
N1400      H1403   1.045       .  S
N1400      H1404   1.043       .  S
C1405      C1406   1.416       .  A
C1405      C1410   1.402       .  A
C1405      H1412   1.084       .  S
C1406      C1407   1.398       .  A
C1407      C1408   1.397       .  A
C1407      N1414   1.437       .  S
C1408      C1409   1.411       .  A
C1408      H1413   1.079       .  S
C1409      C1410   1.404       .  A
C1410      N1411   1.431       .  S
N1411      H1415   1.046       .  S
N1411      H1416   1.045       .  S
N1414      H1417   1.044       .  S
N1414      H1418   1.046       .  S
C1419      C1420   1.402       .  A
C1419      C1424   1.406       .  A
C1419      H1426   1.084       .  S
C1420      C1421   1.410       .  A
C1421      C1422   1.393       .  A
C1421      N1428   1.433       .  S
C1422      C1423   1.397       .  A
C1422      H1427   1.084       .  S
C1423      C1424   1.409       .  A
C1424      N1425   1.430       .  S
N1425      H1429   1.046       .  S
N1425      H1430   1.044       .  S
N1428      H1431   1.045       .  S
N1428      H1432   1.045       .  S
C1433      C1434   1.403       .  A
C1433      C1438   1.398       .  A
C1433      H1440   1.083       .  S
C1434      C1435   1.419       .  A
C1435      C1436   1.404       .  A
C1435      N1442   1.432       .  S
C1436      C1437   1.399       .  A
C1436      H1441   1.084       .  S
C1437      C1438   1.409       .  A
C1438      N1439   1.431       .  S
N1439      H1443   1.044   1_554  S
N1439      H1444   1.045       .  S
N1442      H1445   1.046       .  S
N1442      H1446   1.045       .  S
C1447      C1448   1.408       .  A
C1447      C1452   1.395       .  A
C1447      H1454   1.084       .  S
C1448      C1449   1.411       .  A
C1449      C1450   1.411       .  A
C1449      N1456   1.431   1_554  S
C1450      C1451   1.405       .  A
C1450      H1455   1.082   1_554  S
C1451      C1452   1.402       .  A
C1452      N1453   1.431       .  S
N1453      H1457   1.045       .  S
N1453      H1458   1.046       .  S
N1456      H1459   1.045       .  S
N1456      H1460   1.044       .  S
C1461      C1462   1.404       .  A
C1461      C1466   1.409       .  A
C1461      H1468   1.084       .  S
C1462      C1463   1.410       .  A
C1463      C1464   1.411       .  A
C1463      N1470   1.436       .  S
C1464      C1465   1.409       .  A
C1464      H1469   1.084       .  S
C1465      C1466   1.423       .  A
C1466      N1467   1.432       .  S
N1467      H1471   1.042       .  S
N1467      H1472   1.046       .  S
N1470      H1473   1.045       .  S
N1470      H1474   1.046       .  S
C1475      C1476   1.402       .  A
C1475      C1480   1.403       .  A
C1475      H1482   1.084       .  S
C1476      C1477   1.415       .  A
C1477      C1478   1.405       .  A
C1477      N1484   1.434       .  S
C1478      C1479   1.400       .  A
C1478      H1483   1.084       .  S
C1479      C1480   1.419       .  A
C1480      N1481   1.439       .  S
N1481      H1485   1.045       .  S
N1481      H1486   1.045       .  S
N1484      H1487   1.045       .  S
N1484      H1488   1.045       .  S
C1489      C1490   1.400       .  A
C1489      C1494   1.404       .  A
C1489      H1496   1.084       .  S
C1490      C1491   1.407       .  A
C1491      C1492   1.401       .  A
C1491      N1498   1.432       .  S
C1492      C1493   1.405       .  A
C1492      H1497   1.084       .  S
C1493      C1494   1.417       .  A
C1494      N1495   1.433       .  S
N1495      H1499   1.045       .  S
N1495      H1500   1.045       .  S
N1498      H1501   1.045       .  S
N1498      H1502   1.045       .  S
C1503      C1504   1.408       .  A
C1503      C1508   1.406       .  A
C1503      H1510   1.084       .  S
C1504      C1505   1.415       .  A
C1505      C1506   1.413       .  A
C1505      N1512   1.431       .  S
C1506      C1507   1.413       .  A
C1506      H1511   1.083       .  S
C1507      C1508   1.422       .  A
C1508      N1509   1.433       .  S
N1509      H1513   1.043       .  S
N1509      H1514   1.046       .  S
N1512      H1515   1.045       .  S
N1512      H1516   1.045       .  S
C1517      C1518   1.408       .  A
C1517      C1522   1.414       .  A
C1517      H1524   1.084       .  S
C1518      C1519   1.414       .  A
C1519      C1520   1.412       .  A
C1519      N1526   1.433       .  S
C1520      C1521   1.407       .  A
C1520      H1525   1.084       .  S
C1521      C1522   1.419       .  A
C1522      N1523   1.437       .  S
N1523      H1527   1.045       .  S
N1523      H1528   1.045       .  S
N1526      H1529   1.046       .  S
N1526      H1530   1.046       .  S
C1531      C1532   1.414       .  A
C1531      C1536   1.405       .  A
C1531      H1538   1.083       .  S
C1532      C1533   1.399       .  A
C1533      C1534   1.397       .  A
C1533      N1540   1.433       .  S
C1534      C1535   1.411       .  A
C1534      H1539   1.080       .  S
C1535      C1536   1.401       .  A
C1536      N1537   1.432       .  S
N1537      H1541   1.045       .  S
N1537      H1542   1.046       .  S
N1540      H1543   1.046       .  S
N1540      H1544   1.045       .  S
C1545      C1546   1.405       .  A
C1545      C1550   1.393       .  A
C1545      H1552   1.083   1_655  S
C1546      C1547   1.404       .  A
C1547      C1548   1.406       .  A
C1547      N1554   1.431       .  S
C1548      C1549   1.406       .  A
C1548      H1553   1.083       .  S
C1549      C1550   1.399       .  A
C1550      N1551   1.432       .  S
N1551      H1555   1.042       .  S
N1551      H1556   1.046       .  S
N1554      H1557   1.044       .  S
N1554      H1558   1.046       .  S
C1559      C1560   1.405       .  A
C1559      C1564   1.411       .  A
C1559      H1566   1.084       .  S
C1560      C1561   1.416       .  A
C1561      C1562   1.411       .  A
C1561      N1568   1.432       .  S
C1562      C1563   1.407       .  A
C1562      H1567   1.084       .  S
C1563      C1564   1.421       .  A
C1564      N1565   1.438       .  S
N1565      H1569   1.045       .  S
N1565      H1570   1.044       .  S
N1568      H1571   1.046       .  S
N1568      H1572   1.045       .  S
C1573      C1574   1.407       .  A
C1573      C1578   1.400       .  A
C1573      H1580   1.084   1_455  S
C1574      C1575   1.410       .  A
C1575      C1576   1.403       .  A
C1575      N3630   1.432       .  S
C1576      C1577   1.406       .  A
C1576      H1581   1.085       .  S
C1577      C1578   1.403       .  A
C1578      N1579   1.433       .  S
N1579      H1583   1.045       .  S
N1579      H1584   1.046       .  S
N1582      C3623   1.438       .  S
N1582      H1585   1.046       .  S
N1582      H1586   1.045       .  S
C1587      C1588   1.407       .  A
C1587      C1592   1.402       .  A
C1587      H1594   1.085       .  S
C1588      C1589   1.408       .  A
C1589      C1590   1.397       .  A
C1589      N1596   1.433       .  S
C1590      C1591   1.408       .  A
C1590      H1595   1.084   1_655  S
C1591      C1592   1.407       .  A
C1592      N1593   1.432       .  S
N1593      H1597   1.045       .  S
N1593      H1598   1.046       .  S
N1596      H1599   1.045       .  S
N1596      H1600   1.045       .  S
C1601      C1602   1.406       .  A
C1601      C1606   1.400       .  A
C1601      H1608   1.084       .  S
C1602      C1603   1.410       .  A
C1603      C1604   1.398       .  A
C1603      N1610   1.433       .  S
C1604      C1605   1.403       .  A
C1604      H1609   1.084       .  S
C1605      C1606   1.414       .  A
C1606      N1607   1.433       .  S
N1607      H1611   1.044       .  S
N1607      H1612   1.046       .  S
N1610      H1613   1.046       .  S
N1610      H1614   1.046       .  S
C1615      C1616   1.404       .  A
C1615      C1620   1.407       .  A
C1615      H1622   1.084       .  S
C1616      C1617   1.424       .  A
C1617      C1618   1.416       .  A
C1617      N1624   1.432       .  S
C1618      C1619   1.409       .  A
C1618      H1623   1.083       .  S
C1619      C1620   1.420       .  A
C1620      N1621   1.433       .  S
N1621      H1625   1.045       .  S
N1621      H1626   1.045       .  S
N1624      H1627   1.045       .  S
N1624      H1628   1.044       .  S
C1629      C1630   1.404       .  A
C1629      C1634   1.409       .  A
C1629      H1636   1.084       .  S
C1630      C1631   1.409       .  A
C1631      C1632   1.397       .  A
C1631      N1638   1.433       .  S
C1632      C1633   1.409       .  A
C1632      H1637   1.083       .  S
C1633      C1634   1.415       .  A
C1634      N1635   1.432       .  S
N1635      H1639   1.046       .  S
N1635      H1640   1.046       .  S
N1638      H1641   1.045       .  S
N1638      H1642   1.045       .  S
C1643      C1644   1.400       .  A
C1643      C1648   1.400       .  A
C1643      H1650   1.084       .  S
C1644      C1645   1.412       .  A
C1645      C1646   1.406       .  A
C1645      N1652   1.428       .  S
C1646      C1647   1.405       .  A
C1646      H1651   1.083       .  S
C1647      C1648   1.407       .  A
C1648      N1649   1.429       .  S
N1649      H1653   1.046       .  S
N1649      H1654   1.046       .  S
N1652      H1655   1.043       .  S
N1652      H1656   1.045       .  S
C1657      C1658   1.407       .  A
C1657      C1662   1.410       .  A
C1657      H1664   1.084       .  S
C1658      C1659   1.420       .  A
C1659      C1660   1.415       .  A
C1659      N3714   1.437       .  S
C1660      C1661   1.406       .  A
C1660      H1665   1.084       .  S
C1661      C1662   1.409       .  A
C1662      N1663   1.438       .  S
N1663      H1667   1.046       .  S
N1663      H1668   1.045       .  S
N1666      C3707   1.431       .  S
N1666      H1669   1.045       .  S
N1666      H1670   1.045       .  S
C1671      C1672   1.409       .  A
C1671      C1676   1.400       .  A
C1671      H1678   1.084       .  S
C1672      C1673   1.407       .  A
C1673      C1674   1.397       .  A
C1673      N1680   1.432       .  S
C1674      C1675   1.405       .  A
C1674      H1679   1.083       .  S
C1675      C1676   1.406       .  A
C1676      N1677   1.432       .  S
N1677      H1681   1.046       .  S
N1677      H1682   1.046       .  S
N1680      H1683   1.045       .  S
N1680      H1684   1.045       .  S
C1685      C1686   1.402       .  A
C1685      C1690   1.406       .  A
C1685      H1692   1.084   1_554  S
C1686      C2714   1.476       .  S
C1686      C1687   1.417       .  A
C1687      C1688   1.405       .  A
C1687      N1694   1.438       .  S
C1688      C1689   1.403       .  A
C1688      H1693   1.083       .  S
C1689      C1690   1.412       .  A
C1690      N1691   1.432       .  S
N1691      H1695   1.045       .  S
N1691      H1696   1.046       .  S
N1694      H1697   1.045       .  S
N1694      H1698   1.045       .  S
C1699      C1700   1.399       .  A
C1699      C1704   1.397       .  A
C1699      H1706   1.084       .  S
C1700      C1701   1.404       .  A
C1701      C1702   1.403       .  A
C1701      N1708   1.432       .  S
C1702      C1703   1.409       .  A
C1702      H1707   1.084       .  S
C1703      C1704   1.415       .  A
C1704      N1705   1.434       .  S
N1705      H1709   1.044       .  S
N1705      H1710   1.046       .  S
N1708      H1711   1.045       .  S
N1708      H1712   1.046       .  S
C1713      C1714   1.409       .  A
C1713      C1718   1.411       .  A
C1713      H1720   1.083       .  S
C1714      C1715   1.413       .  A
C1715      C1716   1.422       .  A
C1715      N1722   1.437       .  S
C1716      C1717   1.416       .  A
C1716      H1721   1.083       .  S
C1717      C1718   1.417       .  A
C1718      N1719   1.438       .  S
N1719      H1723   1.046       .  S
N1719      H1724   1.044       .  S
N1722      H1725   1.046       .  S
N1722      H1726   1.045       .  S
C1727      C1728   1.406       .  A
C1727      C1732   1.398       .  A
C1727      H1734   1.079       .  S
C1728      C1729   1.410       .  A
C1729      C1730   1.409       .  A
C1729      N1736   1.431       .  S
C1730      C1731   1.415       .  A
C1730      H1735   1.083       .  S
C1731      C1732   1.411       .  A
C1732      N1733   1.439       .  S
N1733      H1737   1.046       .  S
N1733      H1738   1.045       .  S
N1736      H1739   1.046       .  S
N1736      H1740   1.045       .  S
C1741      C1742   1.408       .  A
C1741      C1746   1.407       .  A
C1741      H1748   1.084       .  S
C1742      C1743   1.410       .  A
C1743      C1744   1.396       .  A
C1743      N1750   1.433       .  S
C1744      C1745   1.406       .  A
C1744      H1749   1.079       .  S
C1745      C1746   1.407       .  A
C1746      N1747   1.432       .  S
N1747      H1751   1.046       .  S
N1747      H1752   1.046       .  S
N1750      H1753   1.044       .  S
N1750      H1754   1.045       .  S
C1755      C1756   1.407       .  A
C1755      C1760   1.414       .  A
C1755      H1762   1.084       .  S
C1756      C1757   1.409       .  A
C1757      C1758   1.414       .  A
C1757      N1764   1.436       .  S
C1758      C1759   1.410       .  A
C1758      H1763   1.084       .  S
C1759      C1760   1.413       .  A
C1760      N1761   1.431       .  S
N1761      H1765   1.045       .  S
N1761      H1766   1.044       .  S
N1764      H1767   1.045       .  S
N1764      H1768   1.046       .  S
C1769      C1770   1.411       .  A
C1769      C1774   1.403       .  A
C1769      H1776   1.084       .  S
C1770      C1771   1.401       .  A
C1771      C1772   1.395       .  A
C1771      N1778   1.429       .  S
C1772      C1773   1.403       .  A
C1772      H1777   1.084       .  S
C1773      C1774   1.404       .  A
C1774      N1775   1.437       .  S
N1775      H1779   1.046       .  S
N1775      H1780   1.046       .  S
N1778      H1781   1.046       .  S
N1778      H1782   1.045       .  S
C1783      C1784   1.409       .  A
C1783      C1788   1.404       .  A
C1783      H1790   1.084       .  S
C1784      C1785   1.418       .  A
C1785      C1786   1.406       .  A
C1785      N1792   1.432       .  S
C1786      C1787   1.401       .  A
C1786      H1791   1.085       .  S
C1787      C1788   1.407       .  A
C1788      N1789   1.433       .  S
N1789      H1793   1.045       .  S
N1789      H1794   1.045       .  S
N1792      H1795   1.046       .  S
N1792      H1796   1.046       .  S
C1797      C1798   1.406       .  A
C1797      C1802   1.408       .  A
C1797      H1804   1.083       .  S
C1798      C1799   1.414       .  A
C1799      C1800   1.406       .  A
C1799      N1806   1.432       .  S
C1800      C1801   1.403       .  A
C1800      H1805   1.084       .  S
C1801      C1802   1.414       .  A
C1802      N1803   1.438       .  S
N1803      H1807   1.046       .  S
N1803      H1808   1.045       .  S
N1806      H1809   1.046       .  S
N1806      H1810   1.046       .  S
C1811      C1812   1.415       .  A
C1811      C1816   1.413       .  A
C1811      H1818   1.083       .  S
C1812      C1813   1.414       .  A
C1813      C1814   1.389       .  A
C1813      N3868   1.433       .  S
C1814      C1815   1.407       .  A
C1814      H1819   1.081       .  S
C1815      C1816   1.410       .  A
C1816      N1817   1.437       .  S
N1817      H1821   1.045       .  S
N1817      H1822   1.046       .  S
N1820      C3861   1.433       .  S
N1820      H1824   1.044       .  S
N1820      H3871   1.046   1_556  S
H1823      N3868   1.045       .  S
C1825      C1826   1.407       .  A
C1825      C1830   1.411       .  A
C1825      H1832   1.084       .  S
C1826      C1827   1.412       .  A
C1827      C1828   1.417       .  A
C1827      N1834   1.437       .  S
C1828      C1829   1.407       .  A
C1828      H1833   1.084       .  S
C1829      C1830   1.409       .  A
C1830      N1831   1.432       .  S
N1831      H1835   1.045       .  S
N1831      H1836   1.046       .  S
N1834      H1837   1.045       .  S
N1834      H1838   1.046       .  S
C1839      C1840   1.404       .  A
C1839      C1844   1.385       .  A
C1839      H1846   1.084       .  S
C1840      C1841   1.419       .  A
C1841      C1842   1.408       .  A
C1841      N1848   1.437       .  S
C1842      C1843   1.401       .  A
C1842      H1847   1.084       .  S
C1843      C1844   1.406       .  A
C1844      N1845   1.435       .  S
N1845      H1849   1.045       .  S
N1845      H1850   1.046       .  S
N1848      H1851   1.045       .  S
N1848      H1852   1.045       .  S
C1853      C1854   1.414       .  A
C1853      C1858   1.407       .  A
C1853      H1860   1.084       .  S
C1854      C1855   1.399       .  A
C1855      C1856   1.384       .  A
C1855      N1862   1.435       .  S
C1856      C1857   1.419       .  A
C1856      H1861   1.083       .  S
C1857      C1858   1.411       .  A
C1858      N1859   1.431       .  S
N1859      H1863   1.045       .  S
N1859      H1864   1.045       .  S
N1862      H1866   1.045   1_554  S
N1862      H3913   1.045       .  S
H1865      N3910   1.045       .  S
C1867      C1872   1.414   1_556  A
C1867      C3916   1.412       .  A
C1867      H1874   1.083       .  S
C1868      C1869   1.419       .  A
C1868      C3915   1.411       .  A
C1869      C1870   1.415       .  A
C1869      N1876   1.437       .  S
C1870      C3919   1.407       .  A
C1870      H1875   1.084       .  S
C1871      C1872   1.408       .  A
C1871      C3918   1.405   1_554  A
C1872      N1873   1.437       .  S
N1873      H1877   1.046       .  S
N1873      H1878   1.046       .  S
N1876      H1879   1.046       .  S
N1876      H1880   1.046       .  S
C1881      C1882   1.398       .  A
C1881      C1886   1.402       .  A
C1881      H1888   1.084       .  S
C1882      C1883   1.415       .  A
C1883      C1884   1.400       .  A
C1883      N1890   1.433       .  S
C1884      C1885   1.405       .  A
C1884      H1889   1.084       .  S
C1885      C1886   1.418       .  A
C1886      N1887   1.432       .  S
N1887      H1891   1.046       .  S
N1887      H1892   1.045       .  S
N1890      H1893   1.046       .  S
N1890      H1894   1.044       .  S
C1895      C1896   1.408       .  A
C1895      C1900   1.407       .  A
C1895      H1902   1.083       .  S
C1896      C1897   1.420       .  A
C1897      C1898   1.413       .  A
C1897      N1904   1.437       .  S
C1898      C1899   1.402       .  A
C1898      H1903   1.084       .  S
C1899      C1900   1.410       .  A
C1900      N1901   1.438       .  S
N1901      H1905   1.046       .  S
N1901      H1906   1.046       .  S
N1904      H1907   1.046       .  S
N1904      H1908   1.046       .  S
C1909      C1910   1.410       .  A
C1909      C1914   1.396       .  A
C1909      H1916   1.080       .  S
C1910      C1911   1.394       .  A
C1911      C1912   1.404       .  A
C1911      N1918   1.431       .  S
C1912      C1913   1.418       .  A
C1912      H1917   1.081       .  S
C1913      C1914   1.405       .  A
C1914      N1915   1.432       .  S
N1915      H1919   1.045       .  S
N1915      H1920   1.046       .  S
N1918      H1921   1.045       .  S
N1918      H1922   1.045       .  S
C1923      C1924   1.404       .  A
C1923      C1928   1.396       .  A
C1923      H1930   1.084       .  S
C1924      C1925   1.409       .  A
C1925      C1926   1.400       .  A
C1925      N1932   1.432       .  S
C1926      C1927   1.405       .  A
C1926      H1931   1.083       .  S
C1927      C1928   1.402       .  A
C1928      N1929   1.433       .  S
N1929      H1933   1.045       .  S
N1929      H1934   1.046       .  S
N1932      H1935   1.045       .  S
N1932      H1936   1.046       .  S
C1937      C1938   1.407       .  A
C1937      C1942   1.413       .  A
C1937      H1944   1.084       .  S
C1938      C1939   1.413       .  A
C1939      C1940   1.406       .  A
C1939      N1946   1.433       .  S
C1940      C1941   1.411       .  A
C1940      H1945   1.084       .  S
C1941      C1942   1.412       .  A
C1942      N1943   1.432   1_554  S
N1943      H1947   1.045       .  S
N1943      H3996   1.046       .  S
N1946      H1949   1.045       .  S
N1946      H1950   1.045       .  S
H1948      N3991   1.045       .  S
C1951      C1952   1.408       .  A
C1951      C1956   1.402       .  A
C1951      H1958   1.082       .  S
C1952      C1953   1.416       .  A
C1953      C1954   1.406       .  A
C1953      N1960   1.432       .  S
C1954      C1955   1.402       .  A
C1954      H1959   1.084       .  S
C1955      C1956   1.413       .  A
C1956      N1957   1.433       .  S
N1957      H1961   1.045       .  S
N1957      H1962   1.046       .  S
N1960      H1963   1.046       .  S
N1960      H1964   1.046       .  S
C1965      C1966   1.402       .  A
C1965      C1970   1.405       .  A
C1965      H1972   1.084       .  S
C1966      C1967   1.409       .  A
C1967      C1968   1.409       .  A
C1967      N1974   1.437       .  S
C1968      C1969   1.404       .  A
C1968      H1973   1.083       .  S
C1969      C1970   1.409       .  A
C1970      N1971   1.433       .  S
N1971      H1975   1.045       .  S
N1971      H1976   1.046       .  S
N1974      H1977   1.045       .  S
N1974      H1978   1.045       .  S
C1979      C1980   1.407       .  A
C1979      C1984   1.417       .  A
C1979      H1986   1.084       .  S
C1980      C1981   1.407       .  A
C1981      C1982   1.408       .  A
C1981      N1988   1.432       .  S
C1982      C1983   1.407       .  A
C1982      H1987   1.084       .  S
C1983      C2450   1.484       .  S
C1983      C1984   1.412       .  A
C1984      N4033   1.437       .  S
N1985      C4032   1.437       .  S
N1985      H1989   1.046       .  S
N1985      H1990   1.045   1_556  S
N1988      H1991   1.046       .  S
N1988      H1992   1.045       .  S
C1993      C1994   1.401       .  A
C1993      C1998   1.398       .  A
C1993      H2000   1.084       .  S
C1994      C1995   1.418       .  A
C1995      C1996   1.402       .  A
C1995      N2002   1.434       .  S
C1996      C1997   1.398       .  A
C1996      H2001   1.084       .  S
C1997      C1998   1.408       .  A
C1998      N1999   1.433       .  S
N1999      H2003   1.045       .  S
N1999      H2004   1.045       .  S
N2002      H2005   1.045       .  S
N2002      H2006   1.046       .  S
C2007      C2008   1.408       .  A
C2007      C2012   1.400       .  A
C2007      H2014   1.084       .  S
C2008      C2009   1.416       .  A
C2009      C2010   1.408       .  A
C2009      N2016   1.438       .  S
C2010      C2011   1.404       .  A
C2010      H2015   1.084       .  S
C2011      C2012   1.413       .  A
C2012      N4061   1.438       .  S
N2013      C4060   1.438       .  S
N2013      H2017   1.046       .  S
N2013      H2018   1.043       .  S
N2016      H2019   1.045       .  S
N2016      H2020   1.046       .  S
C2021      C2022   1.411       .  A
C2021      C2026   1.411       .  A
C2021      H2028   1.084       .  S
C2022      C2023   1.422       .  A
C2023      C2024   1.404       .  A
C2023      N2030   1.432       .  S
C2024      C2025   1.404       .  A
C2024      H2029   1.084       .  S
C2025      C2026   1.416       .  A
C2026      N2027   1.432       .  S
N2027      H2031   1.044       .  S
N2027      H2032   1.046       .  S
N2030      H2033   1.042       .  S
N2030      H2034   1.043       .  S
C2035      C2036   1.408       .  A
C2035      C2040   1.402       .  A
C2035      H2042   1.083       .  S
C2036      C2037   1.415       .  A
C2037      C2038   1.399       .  A
C2037      N2044   1.433       .  S
C2038      C2039   1.398       .  A
C2038      H2043   1.085       .  S
C2039      C2040   1.407       .  A
C2040      N2041   1.439       .  S
N2041      H2045   1.046       .  S
N2041      H2046   1.046       .  S
N2044      H2047   1.044       .  S
N2044      H2048   1.046       .  S
O2049     Cr2067   2.012       .  S
O2049      C2057   1.261       .  A
O2050     Cr2067   1.977       .  S
O2050      C2051   1.266       .  A
C2051      O2052   1.271       .  A
C2051      C4070   1.508       .  S
O2052     Cr2068   2.035       .  S
O2053     Cr2068   2.011       .  S
O2053      C2054   1.271       .  A
C2054      O2055   1.266       .  A
C2054      C4028   1.485       .  S
O2055     Cr2069   1.999       .  S
O2056     Cr2069   1.957       .  S
O2056      C2057   1.255       .  A
C2057      C4056   1.485       .  S
O2058     Cr2067   1.969       .  S
O2058      C2066   1.260       .  A
O2059     Cr2067   1.976       .  S
O2059      C2060   1.256       .  A
C2060      O2061   1.264       .  A
C2060      C4045   1.456       .  S
O2061     Cr2068   2.001       .  S
O2062     Cr2068   2.014       .  S
O2062      C2063   1.267       .  A
C2063      O2064   1.253       .  A
C2063      C4014   1.476       .  S
O2064     Cr2069   1.967       .  S
O2065     Cr2069   1.995       .  S
O2065      C2066   1.264       .  A
C2066      C4084   1.477       .  S
Cr2067     O2070   1.783       .  S
Cr2068     O2070   1.780       .  S
Cr2069     O2070   1.773       .  S
O2071     Cr2089   1.998       .  S
O2071      C2079   1.260       .  A
O2072     Cr2089   1.989       .  S
O2072      C2073   1.268       .  A
C2073      O2074   1.264       .  A
C2073      C4073   1.495       .  S
O2074     Cr2090   2.011       .  S
O2075     Cr2090   2.026       .  S
O2075      C2076   1.274       .  A
C2076      O2077   1.262       .  A
C2076      C3986   1.486       .  S
O2077     Cr2091   1.985       .  S
O2078     Cr2091   1.960       .  S
O2078      C2079   1.258       .  A
C2079      C3972   1.472       .  S
O2080     Cr2089   1.991       .  S
O2080      C2088   1.262       .  A
O2081     Cr2089   1.966       .  S
O2081      C2082   1.255       .  A
C2082      O2083   1.276       .  A
C2082      C3961   1.474       .  S
O2083     Cr2090   2.022       .  S
O2084     Cr2090   2.025       .  S
O2084      C2085   1.265       .  A
C2085      O2086   1.259       .  A
C2085      C3944   1.503       .  S
O2086     Cr2091   1.980       .  S
O2087     Cr2091   1.980       .  S
O2087      C2088   1.259       .  A
C2088      C4003   1.476       .  S
Cr2089     O2092   1.791       .  S
Cr2090     O2092   1.783       .  S
Cr2091     O2092   1.772       .  S
O2093     Cr2111   1.951       .  S
O2093      C2101   1.255       .  A
O2094     Cr2111   1.996       .  S
O2094      C2095   1.261       .  A
C2095      O2096   1.272       .  A
C2095      C3874   1.494       .  S
O2096     Cr2112   2.032       .  S
O2097     Cr2112   2.014       .  S
O2097      C2098   1.267       .  A
C2098      O2099   1.266       .  A
C2098      C3916   1.503       .  S
O2099     Cr2113   1.979       .  S
O2100     Cr2113   1.995       .  S
O2100      C2101   1.260       .  A
C2101      C3888   1.465       .  S
O2102     Cr2111   1.995       .  S
O2102      C2110   1.260       .  A
O2103     Cr2111   1.960       .  S
O2103      C2104   1.255       .  A
C2104      O2105   1.270       .  A
C2104      C3860   1.484       .  S
O2105     Cr2112   2.022       .  S
O2106      C2107   1.272       .  A
C2107      C3902   1.457       .  S
O2108     Cr2113   1.968       .  S
O2109     Cr2113   2.003       .  S
O2109      C2110   1.266       .  A
C2110      C3930   1.483       .  S
Cr2111     O2114   1.763       .  S
Cr2112     O2114   1.773       .  S
Cr2113     O2114   1.782       .  S
O2115     Cr2133   1.960       .  S
O2115      C2123   1.257       .  A
O2116     Cr2133   1.997       .  S
O2116      C2117   1.266       .  A
C2117      O2118   1.276       .  A
C2117      C3804   1.491       .  S
O2118     Cr2134   2.025       .  S
O2119     Cr2134   2.016       .  S
O2119      C2120   1.267       .  A
C2120      O2121   1.268       .  A
C2120      C3919   1.494       .  S
O2121     Cr2135   1.985       .  S
O2122     Cr2135   1.984       .  S
O2122      C2123   1.258       .  A
C2123      C3821   1.461       .  S
O2124     Cr2133   2.002       .  S
O2124      C2132   1.263       .  A
O2125     Cr2133   1.978       .  S
O2125      C2126   1.255       .  A
C2126      O2127   1.259       .  A
C2126      C3793   1.465       .  S
O2127     Cr2134   1.999       .  S
O2128     Cr2134   2.027       .  S
C2129      C3835   1.460       .  S
O2130     Cr2135   1.958       .  S
O2131     Cr2135   1.985       .  S
O2131      C2132   1.263       .  A
C2132      C3846   1.487       .  S
Cr2133     O2136   1.776       .  S
Cr2134     O2136   1.782       .  S
Cr2135     O2136   1.788       .  S
O2137     Cr2155   1.991       .  S
O2137      C2145   1.268       .  A
O2138     Cr2155   2.012       .  S
O2138      C2139   1.270       .  A
C2139      O2140   1.272       .  A
C2139      C3762   1.517       .  S
O2140     Cr2156   2.006       .  S
O2141     Cr2156   2.052       .  S
O2141      C2142   1.277       .  A
C2142      O2143   1.258       .  A
C2142      C3737   1.490       .  S
O2143     Cr2157   1.962       .  S
O2144     Cr2157   1.952       .  S
O2144      C2145   1.257       .  A
C2145      C3905   1.487       .  S
O2146     Cr2155   1.977       .  S
O2146      C2154   1.259       .  A
O2147     Cr2155   1.935       .  S
O2147      C2148   1.250       .  A
C2148      O2149   1.261       .  A
C2148      C3891   1.449       .  S
O2149     Cr2156   2.007       .  S
O2150     Cr2156   1.995       .  S
O2150      C2151   1.258       .  A
C2151      O2152   1.255       .  A
C2151      C3748   1.468       .  S
O2152     Cr2157   1.984       .  S
O2153     Cr2157   2.020       .  S
O2153      C2154   1.269       .  A
C2154      C3776   1.487       .  S
Cr2155     O2158   1.772       .  S
Cr2156     O2158   1.790       .  S
Cr2157     O2158   1.769       .  S
O2159     Cr2177   2.008       .  S
O2159      C2167   1.264       .  A
O2160     Cr2177   1.980       .  S
O2160      C2161   1.267       .  A
C2161      O2162   1.270       .  A
C2161      C3765   1.511       .  S
O2162     Cr2178   2.039       .  S
O2163     Cr2178   2.022       .  S
O2163      C2164   1.273       .  A
C2164      O2165   1.268       .  A
C2164      C3709   1.493       .  S
O2165     Cr2179   2.004       .  S
O2166     Cr2179   1.953       .  S
O2166      C2167   1.254       .  A
C2167      C3832   1.490       .  S
O2168     Cr2177   1.979       .  S
O2168      C2176   1.261       .  A
O2169     Cr2177   1.975       .  S
O2169      C2170   1.255       .  A
C2170      O2171   1.269       .  A
C2170      C3818   1.462       .  S
O2171     Cr2178   2.005       .  S
O2172     Cr2178   2.031       .  S
O2172      C2173   1.269       .  A
C2173      O2174   1.251       .  A
C2173      C3692   1.472       .  S
O2174     Cr2179   1.958       .  S
O2175     Cr2179   2.001       .  S
O2175      C2176   1.263       .  A
C2176      C3720   1.483       .  S
Cr2177     O2180   1.780       .  S
Cr2178     O2180   1.780       .  S
Cr2179     O2180   1.769       .  S
O2181      C2189   1.256       .  A
O2182      C2183   1.267       .  A
C2183      C3611   1.492       .  S
O2184     Cr2200   2.027       .  S
O2185     Cr2200   2.017       .  S
O2185      C2186   1.265       .  A
C2186      O2187   1.270       .  A
C2186      C3664   1.503       .  S
O2187     Cr2201   1.991       .  S
O2188     Cr2201   1.994       .  S
C2189      C3622   1.478   1_655  S
O2190     Cr2199   1.999       .  S
O2190      C2198   1.263   1_655  A
O2191     Cr2199   1.973       .  S
O2191      C2192   1.254       .  A
C2192      O2193   1.258       .  A
C2192      C3653   1.469       .  S
O2193     Cr2200   1.993       .  S
O2194     Cr2200   2.023       .  S
O2194      C2195   1.270       .  A
C2195      O2196   1.253       .  A
C2195      C3636   1.466       .  S
O2196     Cr2201   1.964       .  S
O2197     Cr2201   1.985       .  S
O2197      C2198   1.263   1_655  A
C2198      C3678   1.479       .  S
Cr2199     O2202   1.780       .  S
Cr2200     O2202   1.786       .  S
Cr2201     O2202   1.795       .  S
O2203     Cr2221   1.974       .  S
O2203      C2211   1.263       .  A
O2204     Cr2221   1.977       .  S
O2204      C2205   1.262       .  A
C2205      O2206   1.281       .  A
C2205      C3566   1.508       .  S
O2206     Cr2222   2.069       .  S
O2207     Cr2222   2.007       .  S
O2207      C2208   1.275       .  A
C2208      O2209   1.265       .  A
C2208      C3667   1.510       .  S
O2209     Cr2223   1.995       .  S
O2210     Cr2223   1.986       .  S
O2210      C2211   1.266       .  A
C2211      C3583   1.481   1_655  S
O2212     Cr2221   2.011       .  S
O2212      C2220   1.266       .  A
O2213     Cr2221   1.990       .  S
O2213      C2214   1.258       .  A
C2214      O2215   1.257       .  A
C2214      C4087   1.463       .  S
O2215     Cr2222   1.976       .  S
O2216     Cr2222   2.027       .  S
O2216      C2217   1.266       .  A
C2217      O2218   1.253       .  A
C2217      C3597   1.465       .  S
O2218     Cr2223   1.958       .  S
O2219     Cr2223   1.975       .  S
O2219      C2220   1.256       .  A
C2220      C3695   1.469   1_655  S
Cr2221     O2224   1.775       .  S
Cr2222     O2224   1.789       .  S
Cr2223     O2224   1.770       .  S
O2225     Cr2243   1.961       .  S
O2225      C2233   1.256       .  A
O2226     Cr2243   2.005       .  S
O2226      C2227   1.269       .  A
C2227      O2228   1.275       .  A
C2227      C3510   1.490       .  S
O2228     Cr2244   2.016       .  S
O2229     Cr2244   2.026       .  S
O2229      C2230   1.268       .  A
C2230      O2231   1.265       .  A
C2230      C3552   1.491       .  S
O2231     Cr2245   1.975       .  S
O2232     Cr2245   1.989       .  S
O2232      C2233   1.257       .  A
C2233      C3524   1.468       .  S
O2234     Cr2243   2.007       .  S
O2234      C2242   1.266       .  A
O2235     Cr2243   1.968       .  S
O2235      C2236   1.254       .  A
C2236      O2237   1.263       .  A
C2236      C4000   1.486       .  S
O2237     Cr2244   2.009       .  S
O2238     Cr2244   2.026       .  S
O2238      C2239   1.271       .  A
C2239      O2240   1.252       .  A
C2239      C3538   1.468       .  S
O2240     Cr2245   1.967       .  S
O2241     Cr2245   1.971       .  S
O2241      C2242   1.260       .  A
C2242      C3751   1.486       .  S
Cr2243     O2246   1.770       .  S
Cr2244     O2246   1.782       .  S
Cr2245     O2246   1.779       .  S
O2247      C2255   1.258       .  A
O2248      C2249   1.260       .  A
C2249      C3440   1.492       .  S
O2250     Cr2266   2.041       .  S
O2251     Cr2266   1.994       .  S
O2251      C2252   1.269       .  A
C2252      O2253   1.264       .  A
C2252      C3555   1.500       .  S
O2253     Cr2267   1.999       .  S
O2254     Cr2267   1.985       .  S
C2255      C3457   1.489       .  S
O2256     Cr2265   2.006       .  S
O2256      C2264   1.266       .  A
O2257     Cr2265   1.984       .  S
O2257      C2258   1.258       .  A
C2258      O2259   1.262       .  A
C2258      C3485   1.475       .  S
O2259     Cr2266   1.991       .  S
O2260     Cr2266   2.026       .  S
O2260      C2261   1.264       .  A
C2261      O2262   1.253       .  A
C2261      C3471   1.464       .  S
O2262     Cr2267   1.949       .  S
O2263     Cr2267   1.983       .  S
O2263      C2264   1.259       .  A
C2264      C3499   1.471       .  S
Cr2265     O2268   1.772       .  S
Cr2266     O2268   1.787       .  S
Cr2267     O2268   1.769       .  S
O2269     Cr2287   2.002       .  S
O2269      C2277   1.259       .  A
O2270     Cr2287   1.989       .  S
O2270      C2271   1.270       .  A
C2271      O2272   1.269       .  A
C2271      C3426   1.497       .  S
O2272     Cr2288   2.012       .  S
O2273     Cr2288   2.008       .  S
O2273      C2274   1.270       .  A
C2274      O2275   1.263       .  A
C2274      C3387   1.476       .  S
O2275     Cr2289   1.982       .  S
O2276     Cr2289   1.960       .  S
O2276      C2277   1.251       .  A
C2277      C3412   1.480       .  S
O2278     Cr2287   1.986       .  S
O2278      C2286   1.263       .  A
O2279     Cr2287   1.964       .  S
C2280      O2281   1.266       .  A
C2280      C3401   1.455       .  S
O2282     Cr2288   1.994       .  S
O2282      C2283   1.262       .  A
C2283      O2284   1.256       .  A
C2283      C3373   1.466       .  S
O2284     Cr2289   1.972       .  S
O2285     Cr2289   2.007       .  S
O2285      C2286   1.265       .  A
C2286      C3650   1.475       .  S
Cr2287     O2290   1.784       .  S
Cr2288     O2290   1.778       .  S
Cr2289     O2290   1.775       .  S
O2291     Cr2309   1.992       .  S
O2291      C2299   1.262       .  A
O2292     Cr2309   1.977       .  S
O2292      C2293   1.265       .  A
C2293      O2294   1.267       .  A
C2293      C3429   1.492       .  S
O2294     Cr2310   2.017       .  S
O2295     Cr2310   2.016       .  S
O2295      C2296   1.271       .  A
C2296      O2297   1.267       .  A
C2296      C3359   1.490       .  S
O2297     Cr2311   2.007       .  S
O2298     Cr2311   1.956       .  S
O2298      C2299   1.257       .  A
C2299      C3345   1.467       .  S
O2300     Cr2309   1.982       .  S
O2300      C2308   1.262       .  A
O2301     Cr2309   1.969       .  S
C2302      C3331   1.462   1_554  S
O2303     Cr2310   2.005       .  S
O2304     Cr2310   2.006       .  S
O2304      C2305   1.267       .  A
C2305      O2306   1.255       .  A
C2305      C3314   1.481       .  S
O2306     Cr2311   1.973       .  S
O2307     Cr2311   1.998       .  S
O2307      C2308   1.261       .  A
C2308      C3482   1.484       .  S
Cr2309     O2312   1.778       .  S
Cr2310     O2312   1.773       .  S
Cr2311     O2312   1.772       .  S
O2313      C2321   1.257       .  A
O2314      C2315   1.268       .  A
C2315      C3244   1.484       .  S
O2316     Cr2332   2.017       .  S
O2317     Cr2332   2.021       .  S
O2317      C2318   1.269       .  A
C2318      O2319   1.272       .  A
C2318      C3275   1.503       .  S
O2319     Cr2333   1.991       .  S
O2320     Cr2333   2.013       .  S
C2321      C3286   1.485   1_455  S
O2322     Cr2331   1.993       .  S
O2322      C2330   1.261   1_455  A
O2323     Cr2331   1.971       .  S
O2323      C2324   1.257       .  A
C2324      O2325   1.264       .  A
C2324      C3258   1.484       .  S
O2325     Cr2332   2.011       .  S
O2326     Cr2332   2.015       .  S
O2326      C2327   1.269       .  A
C2327      O2328   1.254       .  A
C2327      C3303   1.461       .  S
O2328     Cr2333   1.962       .  S
O2329     Cr2333   1.993       .  S
O2329      C2330   1.262   1_455  A
C2330      C3370   1.480       .  S
Cr2331     O2334   1.771       .  S
Cr2332     O2334   1.783       .  S
Cr2333     O2334   1.785       .  S
O2335     Cr2353   1.977       .  S
O2335      C2343   1.263       .  A
O2336     Cr2353   1.962       .  S
O2336      C2337   1.260       .  A
C2337      O2338   1.284       .  A
C2337      C3807   1.504       .  S
O2338     Cr2354   2.078       .  S
O2339     Cr2354   2.001       .  S
O2339      C2340   1.274       .  A
C2340      O2341   1.270       .  A
C2340      C3272   1.510       .  S
O2341     Cr2355   2.019       .  S
O2342     Cr2355   1.984       .  S
O2342      C2343   1.266       .  A
C2343      C3216   1.485   1_455  S
O2344     Cr2353   2.009       .  S
O2344      C2352   1.265       .  A
O2345     Cr2353   1.988       .  S
O2345      C2346   1.259       .  A
C2346      O2347   1.262       .  A
C2346      C3723   1.476       .  S
O2347     Cr2354   1.995       .  S
O2348     Cr2354   2.056       .  S
O2348      C2349   1.267       .  A
C2349      O2350   1.241       .  A
C2349      C3230   1.477       .  S
O2350     Cr2355   1.942       .  S
O2351     Cr2355   1.979   1_655  S
O2351      C2352   1.257   1_655  A
C2352      C4017   1.468   1_455  S
Cr2353     O2356   1.761       .  S
Cr2354     O2356   1.793       .  S
Cr2355     O2356   1.756       .  S
O2357     Cr2375   2.006       .  S
O2357      C2365   1.265       .  A
O2358     Cr2375   1.996       .  S
O2358      C2359   1.272       .  A
C2359      O2360   1.268       .  A
C2359      C3163   1.517       .  S
O2360     Cr2376   2.021       .  S
O2361     Cr2376   2.024       .  S
O2361      C2362   1.278       .  A
C2362      O2363   1.268       .  A
C2362      C3177   1.492       .  S
O2363     Cr2377   2.000       .  S
O2364     Cr2377   1.962       .  S
O2364      C2365   1.258       .  A
C2365      C3205   1.485       .  S
O2366     Cr2375   1.984       .  S
O2366      C2374   1.261       .  A
O2367     Cr2375   1.969       .  S
C2368      O2369   1.271       .  A
C2368      C3188   1.460       .  S
O2370     Cr2376   2.005       .  S
O2370      C2371   1.261       .  A
C2371      O2372   1.255       .  A
C2371      C3681   1.490       .  S
O2372     Cr2377   1.983       .  S
O2373     Cr2377   1.990       .  S
O2373      C2374   1.260       .  A
C2374      C3261   1.477       .  S
Cr2375     O2378   1.791       .  S
Cr2376     O2378   1.782       .  S
Cr2377     O2378   1.774       .  S
O2379     Cr2397   1.990       .  S
O2379      C2387   1.268       .  A
O2380     Cr2397   2.027       .  S
O2380      C2381   1.275       .  A
C2381      O2382   1.272       .  A
C2381      C3160   1.509       .  S
O2382     Cr2398   1.997       .  S
O2383     Cr2398   2.064       .  S
O2383      C2384   1.282       .  A
C2384      O2385   1.259       .  A
C2384      C3107   1.489       .  S
O2385     Cr2399   1.964       .  S
O2386     Cr2399   1.947       .  S
O2386      C2387   1.251       .  A
C2387      C3132   1.491       .  S
O2388     Cr2397   1.983       .  S
O2388      C2396   1.261       .  A
O2389     Cr2397   1.941       .  S
C2390      C3118   1.467   1_554  S
O2391     Cr2398   2.023       .  S
O2392     Cr2398   2.016       .  S
O2392      C2393   1.263       .  A
C2393      O2394   1.253       .  A
C2393      C3496   1.489       .  S
O2394     Cr2399   1.972       .  S
O2395     Cr2399   1.998       .  S
O2395      C2396   1.265       .  A
C2396      C3146   1.459       .  S
Cr2397     O2400   1.768       .  S
Cr2398     O2400   1.783       .  S
Cr2399     O2400   1.763       .  S
O2401     Cr2419   2.002       .  S
O2402     Cr2419   1.987       .  S
O2402      C2403   1.268       .  A
C2403      O2404   1.265       .  A
C2403      C3076   1.509       .  S
O2404     Cr2420   2.011       .  S
O2405     Cr2420   2.027       .  S
C2406      O2407   1.262       .  A
C2406      C3706   1.491       .  S
O2408      C2409   1.259       .  A
C2409      C3594   1.473       .  S
O2410     Cr2419   1.996       .  S
O2410      C2418   1.262       .  A
O2411     Cr2419   1.960       .  S
O2411      C2412   1.257       .  A
C2412      O2413   1.272       .  A
C2412      C3580   1.461       .  S
O2413     Cr2420   2.005       .  S
O2414     Cr2420   2.027       .  S
O2414      C2415   1.268       .  A
C2415      O2416   1.256       .  A
C2415      C3849   1.485       .  S
O2416     Cr2421   1.972       .  S
O2417     Cr2421   1.975       .  S
O2417      C2418   1.254       .  A
C2418      C3093   1.482   1_455  S
Cr2419     O2422   1.793       .  S
Cr2420     O2422   1.787       .  S
Cr2421     O2422   1.774       .  S
O2423     Cr2441   1.996       .  S
O2423      C2431   1.263       .  A
O2424     Cr2441   1.992       .  S
O2424      C2425   1.270       .  A
C2425      O2426   1.263       .  A
C2425      C3079   1.506       .  S
O2426     Cr2442   2.008       .  S
O2427     Cr2442   2.024       .  S
O2427      C2428   1.276       .  A
C2428      O2429   1.267       .  A
C2428      C3174   1.491       .  S
O2429     Cr2443   2.000       .  S
O2430     Cr2443   1.967       .  S
O2430      C2431   1.260       .  A
C2431      C3639   1.482       .  S
O2432     Cr2441   1.978       .  S
O2432      C2440   1.259       .  A
O2433     Cr2441   1.961       .  S
O2433      C2434   1.254       .  A
C2434      O2435   1.272       .  A
C2434      C3625   1.462       .  S
O2435     Cr2442   2.020       .  S
O2436     Cr2442   2.001       .  S
O2436      C2437   1.260       .  A
C2437      O2438   1.258       .  A
C2437      C3048   1.494       .  S
O2438     Cr2443   1.987       .  S
O2439     Cr2443   1.990       .  S
O2439      C2440   1.261       .  A
C2440      C3062   1.485   1_455  S
Cr2441     O2444   1.791       .  S
Cr2442     O2444   1.783       .  S
Cr2443     O2444   1.782       .  S
O2445     Cr2463   2.012       .  S
O2446     Cr2463   1.982       .  S
O2446      C2447   1.269       .  A
C2447      O2448   1.268       .  A
C2447      C3034   1.500       .  S
O2448     Cr2464   2.020       .  S
O2449     Cr2464   2.026       .  S
O2449      C2450   1.273       .  A
O2452      C2453   1.259       .  A
C2453      C3233   1.474       .  S
O2454     Cr2463   1.994       .  S
O2454      C2462   1.261       .  A
O2455     Cr2463   1.966       .  S
O2455      C2456   1.255       .  A
C2456      O2457   1.269       .  A
C2456      C3219   1.459       .  S
O2457     Cr2464   2.006       .  S
O2458     Cr2464   2.019       .  S
O2458      C2459   1.268       .  A
C2459      O2460   1.258       .  A
C2459      C3023   1.478       .  S
O2460     Cr2465   1.974       .  S
O2461     Cr2465   1.983       .  S
O2461      C2462   1.258       .  A
C2462      C3790   1.490   1_655  S
Cr2463     O2466   1.781       .  S
Cr2464     O2466   1.780       .  S
Cr2465     O2466   1.763       .  S
O2467     Cr2485   1.999       .  S
O2467      C2475   1.260       .  A
O2468     Cr2485   1.987       .  S
O2468      C2469   1.269       .  A
C2469      O2470   1.267       .  A
C2469      C3037   1.497       .  S
O2470     Cr2486   2.012       .  S
O2471     Cr2486   2.004       .  S
O2471      C2472   1.271       .  A
C2472      O2473   1.268       .  A
C2472      C3384   1.477       .  S
O2473     Cr2487   1.995       .  S
O2474     Cr2487   1.963       .  S
O2474      C2475   1.257       .  A
C2475      C3300   1.479       .  S
O2476     Cr2485   1.972       .  S
O2476      C2484   1.260       .  A
O2477     Cr2485   1.969       .  S
O2477      C2478   1.252       .  A
C2478      O2479   1.269       .  A
C2478      C3289   1.462       .  S
O2479     Cr2486   2.019       .  S
O2480     Cr2486   1.999       .  S
O2480      C2481   1.259       .  A
C2481      O2482   1.255       .  A
C2481      C2992   1.479       .  S
O2482     Cr2487   1.974       .  S
O2483     Cr2487   1.995       .  S
O2483      C2484   1.264       .  A
C2484      C3006   1.465   1_655  S
Cr2485     O2488   1.788       .  S
Cr2486     O2488   1.782       .  S
Cr2487     O2488   1.778       .  S
O2489     Cr2507   1.951       .  S
O2489      C2497   1.253       .  A
O2490     Cr2507   1.999       .  S
O2490      C2491   1.266       .  A
C2491      O2492   1.281       .  A
C2491      C3569   1.499       .  S
O2492     Cr2508   2.034       .  S
O2493     Cr2508   2.046       .  S
O2493      C2494   1.272       .  A
C2494      O2495   1.267       .  A
C2494      C2981   1.513       .  S
O2495     Cr2509   1.981       .  S
O2496     Cr2509   2.000       .  S
O2496      C2497   1.261       .  A
C2497      C4042   1.472       .  S
O2498     Cr2507   2.005       .  S
O2498      C2506   1.264       .  A
O2499     Cr2507   1.971       .  S
O2499      C2500   1.255       .  A
C2500      O2501   1.264       .  A
C2500      C3090   1.481       .  S
O2501     Cr2508   2.015       .  S
O2502     Cr2508   2.020       .  S
C2503      C4059   1.467       .  S
O2504     Cr2509   1.969       .  S
O2505     Cr2509   1.976       .  S
O2505      C2506   1.260       .  A
C2506      C3020   1.485       .  S
Cr2507     O2510   1.769       .  S
Cr2508     O2510   1.782       .  S
Cr2509     O2510   1.785       .  S
O2511     Cr2529   1.968       .  S
O2511      C2519   1.258       .  A
O2512     Cr2529   1.970       .  S
O2512      C2513   1.264       .  A
C2513      O2514   1.283       .  A
C2513      C3513   1.504       .  S
O2514     Cr2530   2.068       .  S
O2515     Cr2530   2.012       .  S
O2515      C2516   1.274       .  A
C2516      O2517   1.271       .  A
C2516      C2978   1.523       .  S
O2517     Cr2531   2.012       .  S
O2518     Cr2531   1.991       .  S
O2518      C2519   1.267       .  A
C2519      C3958   1.483       .  S
O2520     Cr2529   2.002       .  S
O2520      C2528   1.265       .  A
O2521     Cr2529   1.971       .  S
O2521      C2522   1.253       .  A
C2522      O2523   1.262       .  A
C2522      C2950   1.489       .  S
O2523     Cr2530   2.012       .  S
O2524      C2525   1.265       .  A
C2525      C3975   1.460       .  S
O2526     Cr2531   1.937       .  S
O2527     Cr2531   1.986       .  S
O2527      C2528   1.260       .  A
C2528      C2967   1.466       .  S
Cr2529     O2532   1.769       .  S
Cr2530     O2532   1.789       .  S
Cr2531     O2532   1.768       .  S
O2533     Cr2551   1.951       .  S
O2533      C2541   1.253       .  A
O2534     Cr2551   2.002       .  S
O2534      C2535   1.264       .  A
C2535      O2536   1.275       .  A
C2535      C3877   1.494       .  S
O2536     Cr2552   2.032       .  S
O2537     Cr2552   1.995       .  S
O2537      C2538   1.259       .  A
C2538      O2539   1.272       .  A
C2538      C2911   1.501       .  S
O2539     Cr2553   1.998       .  S
O2540     Cr2553   1.968       .  S
O2540      C2541   1.257       .  A
C2541      C2922   1.463       .  S
O2542     Cr2551   1.993       .  S
O2542      C2550   1.261       .  A
O2543     Cr2551   1.978       .  S
O2543      C2544   1.254       .  A
C2544      O2545   1.264       .  A
C2544      C3779   1.489       .  S
O2545     Cr2552   2.004       .  S
O2546     Cr2552   2.038       .  S
O2546      C2547   1.279       .  A
C2547      O2548   1.248       .  A
C2547      C2936   1.468       .  S
O2548     Cr2553   1.932       .  S
O2549     Cr2553   2.005       .  S
O2549      C2550   1.265       .  A
C2550      C3947   1.486       .  S
Cr2551     O2554   1.776       .  S
Cr2552     O2554   1.773       .  S
Cr2553     O2554   1.784       .  S
O2555      C2563   1.260       .  A
C2557      O2558   1.280       .  A
O2558     Cr2574   2.059       .  S
O2559     Cr2574   1.990       .  S
O2559      C2560   1.268       .  A
C2560      O2561   1.268       .  A
C2560      C2908   1.514       .  S
O2561     Cr2575   2.010       .  S
O2562     Cr2575   1.982       .  S
C2563      C2880   1.486       .  S
O2564     Cr2573   2.009       .  S
O2564      C2572   1.265       .  A
O2565     Cr2573   1.987       .  S
O2565      C2566   1.257       .  A
C2566      O2567   1.252       .  A
C2566      C3149   1.481       .  S
O2567     Cr2574   1.972       .  S
O2568     Cr2574   2.017       .  S
O2568      C2569   1.264       .  A
C2569      O2570   1.251       .  A
C2569      C2894   1.456       .  S
O2570     Cr2575   1.926       .  S
O2571     Cr2575   1.984       .  S
O2571      C2572   1.259       .  A
C2572      C3317   1.476       .  S
Cr2573     O2576   1.769       .  S
Cr2574     O2576   1.785       .  S
Cr2575     O2576   1.768       .  S
O2577     Cr2595   1.956       .  S
O2577      C2585   1.257       .  A
O2578     Cr2595   1.987       .  S
O2578      C2579   1.262       .  A
C2579      O2580   1.274       .  A
C2579      C2866   1.487       .  S
O2580     Cr2596   2.025       .  S
O2581     Cr2596   2.022       .  S
O2581      C2582   1.267       .  A
C2582      O2583   1.265       .  A
C2582      C2841   1.495       .  S
O2583     Cr2597   1.978       .  S
O2584     Cr2597   1.989       .  S
O2584      C2585   1.258       .  A
C2585      C3121   1.457       .  S
O2586     Cr2595   1.998       .  S
O2586      C2594   1.263       .  A
O2587     Cr2595   1.981       .  S
O2587      C2588   1.261       .  A
C2588      O2589   1.267       .  A
C2588      C2824   1.490       .  S
O2589     Cr2596   2.019       .  S
O2590     Cr2596   2.010       .  S
O2590      C2591   1.271       .  A
C2591      O2592   1.254       .  A
C2591      C3135   1.453       .  S
O2592     Cr2597   1.965       .  S
O2593     Cr2597   2.002       .  S
O2593      C2594   1.266       .  A
C2594      C2852   1.495       .  S
Cr2595     O2598   1.764       .  S
Cr2596     O2598   1.783       .  S
Cr2597     O2598   1.787       .  S
O2599     Cr2617   1.958       .  S
O2599      C2607   1.253       .  A
O2600     Cr2617   1.996       .  S
O2600      C2601   1.266       .  A
C2601      O2602   1.273       .  A
C2601      C3247   1.485       .  S
O2602     Cr2618   2.016       .  S
O2603     Cr2618   2.009       .  S
O2603      C2604   1.266       .  A
C2604      O2605   1.270       .  A
C2604      C2838   1.497       .  S
O2605     Cr2619   1.991       .  S
O2606     Cr2619   2.005       .  S
O2606      C2607   1.263       .  A
C2607      C3191   1.486       .  S
O2608     Cr2617   1.999       .  S
O2608      C2616   1.261       .  A
O2609     Cr2617   1.968       .  S
O2609      C2610   1.255       .  A
C2610      O2611   1.261       .  A
C2610      C3009   1.481       .  S
O2611     Cr2618   2.001       .  S
O2612     Cr2618   2.016       .  S
O2612      C2613   1.270       .  A
C2613      O2614   1.255       .  A
C2613      C3202   1.462       .  S
O2614     Cr2619   1.972       .  S
O2615     Cr2619   1.987       .  S
O2615      C2616   1.262       .  A
C2616      C3051   1.470       .  S
Cr2617     O2620   1.772       .  S
Cr2618     O2620   1.781       .  S
Cr2619     O2620   1.787       .  S
O2621     Cr2639   1.963       .  S
O2622     Cr2639   2.001       .  S
O2622      C2623   1.266       .  A
C2623      O2624   1.275       .  A
C2623      C2813   1.518       .  S
O2624     Cr2640   2.021       .  S
O2625     Cr2640   2.057       .  S
C2626      O2627   1.260       .  A
C2626      C3989   1.497       .  S
O2628      C2629   1.265       .  A
C2629      C2939   1.447       .  S
O2630     Cr2639   1.987       .  S
O2630      C2638   1.256       .  A
O2631     Cr2639   1.937       .  S
O2631      C2632   1.248       .  A
C2632      O2633   1.267       .  A
C2632      C2925   1.446       .  S
O2633     Cr2640   2.018       .  S
O2634     Cr2640   1.980       .  S
O2634      C2635   1.258       .  A
C2635      O2636   1.260       .  A
C2635      C2964   1.484       .  S
O2636     Cr2641   1.997       .  S
O2637     Cr2641   2.004       .  S
O2637      C2638   1.260       .  A
C2638      C3863   1.471       .  S
Cr2639     O2642   1.759       .  S
Cr2640     O2642   1.780       .  S
Cr2641     O2642   1.761       .  S
O2643     Cr2661   1.993       .  S
O2643      C2651   1.260       .  A
O2644     Cr2661   1.984       .  S
O2644      C2645   1.265       .  A
C2645      O2646   1.267       .  A
C2645      C2810   1.508       .  S
O2646     Cr2662   2.028       .  S
O2647     Cr2662   2.032       .  S
O2647      C2648   1.274       .  A
C2648      O2649   1.260       .  A
C2648      C3356   1.487       .  S
O2649     Cr2663   1.988       .  S
O2650     Cr2663   1.951       .  S
O2650      C2651   1.253       .  A
C2651      C2897   1.469       .  S
O2652     Cr2661   1.998       .  S
O2652      C2660   1.265       .  A
O2653     Cr2661   1.966       .  S
O2653      C2654   1.255       .  A
C2654      O2655   1.275       .  A
C2654      C2883   1.471       .  S
O2655     Cr2662   2.014       .  S
O2656     Cr2662   2.035       .  S
O2656      C2657   1.271       .  A
C2657      O2658   1.256       .  A
C2657      C2796   1.489       .  S
O2658     Cr2663   1.966       .  S
O2659     Cr2663   1.995       .  S
O2659      C2660   1.261       .  A
C2660      C2827   1.489       .  S
Cr2661     O2664   1.780       .  S
Cr2662     O2664   1.778       .  S
Cr2663     O2664   1.763       .  S
O2665     Cr2683   1.959       .  S
O2665      C2673   1.258       .  A
O2666     Cr2683   2.000       .  S
O2666      C2667   1.267       .  A
C2667      O2668   1.276       .  A
C2667      C3608   1.492       .  S
O2668     Cr2684   2.023       .  S
O2669     Cr2684   2.035       .  S
O2669      C2670   1.272       .  A
C2670      O2671   1.269       .  A
C2670      C2782   1.507       .  S
O2671     Cr2685   1.984       .  S
O2672     Cr2685   2.001       .  S
O2672      C2673   1.262       .  A
C2673      C3398   1.474       .  S
O2674     Cr2683   1.993       .  S
O2674      C2682   1.260       .  A
O2675     Cr2683   1.971       .  S
O2675      C2676   1.254       .  A
C2676      O2677   1.264       .  A
C2676      C3065   1.475       .  S
O2677     Cr2684   2.014       .  S
O2678     Cr2684   2.018       .  S
O2678      C2679   1.268       .  A
C2679      O2680   1.250       .  A
C2679      C3415   1.455       .  S
O2680     Cr2685   1.964       .  S
O2681     Cr2685   1.994       .  S
O2681      C2682   1.261       .  A
C2682      C2995   1.470       .  S
Cr2683     O2686   1.769       .  S
Cr2684     O2686   1.782       .  S
Cr2685     O2686   1.786       .  S
O2687     Cr2705   1.958       .  S
O2687      C2695   1.256       .  A
O2688     Cr2705   2.000       .  S
O2688      C2689   1.268       .  A
C2689      O2690   1.270       .  A
C2689      C3443   1.478       .  S
O2690     Cr2706   2.000       .  S
O2691     Cr2706   2.020       .  S
O2691      C2692   1.267       .  A
C2692      O2693   1.271       .  A
C2692      C2785   1.504       .  S
O2693     Cr2707   1.994       .  S
O2694     Cr2707   2.006       .  S
O2694      C2695   1.263       .  A
C2695      C3328   1.483       .  S
O2696     Cr2705   2.002       .  S
O2696      C2704   1.263       .  A
O2697     Cr2705   1.975       .  S
O2697      C2698   1.255       .  A
C2698      O2699   1.263       .  A
C2698      C2768   1.487       .  S
O2699     Cr2706   2.011       .  S
O2700     Cr2706   1.996       .  S
O2700      C2701   1.266       .  A
C2701      O2702   1.256       .  A
C2701      C3342   1.447       .  S
O2702     Cr2707   1.962       .  S
O2703     Cr2707   1.989       .  S
O2703      C2704   1.263       .  A
C2704      C2799   1.488       .  S
Cr2705     O2708   1.773       .  S
Cr2706     O2708   1.786       .  S
Cr2707     O2708   1.788       .  S
O2709     Cr2727   1.992       .  S
O2710     Cr2727   2.001       .  S
O2710      C2711   1.270       .  A
C2711      O2712   1.265       .  A
C2711      C2754   1.505       .  S
O2712     Cr2728   2.009       .  S
O2713     Cr2728   2.001       .  S
O2713      C2714   1.270   1_556  A
O2716      C2717   1.256       .  A
C2717      C3541   1.482       .  S
O2718     Cr2727   1.982       .  S
O2718      C2726   1.262       .  A
O2719     Cr2727   1.963       .  S
O2719      C2720   1.256       .  A
C2720      O2721   1.270       .  A
C2720      C3527   1.460       .  S
O2721     Cr2728   2.012       .  S
O2722     Cr2728   2.007       .  S
O2722      C2723   1.261       .  A
C2723      O2724   1.259       .  A
C2723      C3933   1.495       .  S
O2724     Cr2729   1.989       .  S
O2725     Cr2729   1.998       .  S
O2725      C2726   1.261       .  A
C2726      C2953   1.473       .  S
Cr2727     O2730   1.784       .  S
Cr2728     O2730   1.782       .  S
Cr2729     O2730   1.780       .  S
O2731     Cr2749   2.008       .  S
O2731      C2739   1.261       .  A
O2732     Cr2749   1.972       .  S
O2732      C2733   1.264       .  A
C2733      O2734   1.271       .  A
C2733      C2757   1.501       .  S
O2734     Cr2750   2.040       .  S
O2735     Cr2750   2.013       .  S
O2735      C2736   1.270       .  A
C2736      O2737   1.266       .  A
C2736      C3104   1.486       .  S
O2737     Cr2751   1.995       .  S
O2738     Cr2751   1.955       .  S
O2738      C2739   1.255       .  A
C2739      C3468   1.468       .  S
O2740     Cr2749   1.981       .  S
O2740      C2748   1.261       .  A
O2741     Cr2749   1.973       .  S
O2741      C2742   1.258       .  A
C2742      O2743   1.271       .  A
C2742      C3454   1.458       .  S
O2743     Cr2750   2.002       .  S
O2744     Cr2750   2.051       .  S
O2744      C2745   1.273       .  A
C2745      O2746   1.256       .  A
C2745      C2855   1.498       .  S
O2746     Cr2751   1.971       .  S
O2747     Cr2751   1.998       .  S
O2747      C2748   1.262       .  A
C2748      C2771   1.473       .  S
Cr2749     O2752   1.786       .  S
Cr2750     O2752   1.784       .  S
Cr2751     O2752   1.764       .  S
C2753      C2754   1.413       .  A
C2753      C2758   1.413       .  A
C2753      H2760   1.084       .  S
C2754      C2755   1.419       .  A
C2755      C2756   1.409       .  A
C2755      N2762   1.432       .  S
C2756      C2757   1.410       .  A
C2756      H2761   1.084       .  S
C2757      C2758   1.408       .  A
C2758      N2759   1.431       .  S
N2759      H2763   1.046       .  S
N2759      H2764   1.045       .  S
N2762      H2765   1.045       .  S
N2762      H2766   1.045       .  S
C2767      C2768   1.407       .  A
C2767      C2772   1.402       .  A
C2767      H2774   1.084       .  S
C2768      C2769   1.414       .  A
C2769      C2770   1.406       .  A
C2769      N2776   1.432       .  S
C2770      C2771   1.402       .  A
C2770      H2775   1.084       .  S
C2771      C2772   1.407       .  A
C2772      N2773   1.433       .  S
N2773      H2777   1.046       .  S
N2773      H2778   1.046       .  S
N2776      H2779   1.045       .  S
N2776      H2780   1.046       .  S
C2781      C2782   1.409       .  A
C2781      C2786   1.420       .  A
C2781      H2788   1.083       .  S
C2782      C2783   1.417       .  A
C2783      C2784   1.412       .  A
C2783      N2790   1.432       .  S
C2784      C2785   1.406       .  A
C2784      H2789   1.084       .  S
C2785      C2786   1.418       .  A
C2786      N2787   1.437       .  S
N2787      H2791   1.046       .  S
N2787      H2792   1.045       .  S
N2790      H2793   1.046       .  S
N2790      H2794   1.046       .  S
C2795      C2796   1.406       .  A
C2795      C2800   1.409       .  A
C2795      H2802   1.084       .  S
C2796      C2797   1.417       .  A
C2797      C2798   1.402       .  A
C2797      N2804   1.433       .  S
C2798      C2799   1.406       .  A
C2798      H2803   1.084       .  S
C2799      C2800   1.414       .  A
C2800      N2801   1.438       .  S
N2801      H2805   1.046       .  S
N2801      H2806   1.046       .  S
N2804      H2807   1.046       .  S
N2804      H2808   1.044       .  S
C2809      C2810   1.415   1_565  A
C2809      C2814   1.418       .  A
C2809      H2816   1.083   1_565  S
C2810      C2811   1.418   1_545  A
C2811      C2812   1.402       .  A
C2811      N2818   1.433   1_565  S
C2812      C2813   1.414       .  A
C2812      H2817   1.083       .  S
C2813      C2814   1.419       .  A
C2814      N2815   1.431       .  S
N2815      H2819   1.045       .  S
N2815      H2820   1.045       .  S
N2818      H2821   1.047       .  S
N2818      H2822   1.041       .  S
C2823      C2824   1.403       .  A
C2823      C2828   1.406       .  A
C2823      H2830   1.084       .  S
C2824      C2825   1.418       .  A
C2825      C2826   1.409       .  A
C2825      N2832   1.437       .  S
C2826      C2827   1.402       .  A
C2826      H2831   1.084       .  S
C2827      C2828   1.415       .  A
C2828      N2829   1.432       .  S
N2829      H2833   1.046       .  S
N2829      H2834   1.046       .  S
N2832      H2835   1.045       .  S
N2832      H2836   1.046       .  S
C2837      C2838   1.410       .  A
C2837      C2842   1.416       .  A
C2837      H2844   1.083       .  S
C2838      C2839   1.413       .  A
C2839      C2840   1.409       .  A
C2839      N2846   1.432       .  S
C2840      C2841   1.407       .  A
C2840      H2845   1.084       .  S
C2841      C2842   1.413       .  A
C2842      N2843   1.437       .  S
N2843      H2847   1.046       .  S
N2843      H2848   1.045       .  S
N2846      H2849   1.046       .  S
N2846      H2850   1.046       .  S
C2851      C2852   1.404       .  A
C2851      C2856   1.413       .  A
C2851      H2858   1.083       .  S
C2852      C2853   1.416       .  A
C2853      C2854   1.411       .  A
C2853      N2860   1.438       .  S
C2854      C2855   1.406       .  A
C2854      H2859   1.084       .  S
C2855      C2856   1.416       .  A
C2856      N2857   1.434       .  S
N2857      H2861   1.045       .  S
N2857      H2862   1.046       .  S
N2860      H2863   1.046       .  S
N2860      H2864   1.046       .  S
C2865      C2866   1.403       .  A
C2865      C2870   1.412       .  A
C2865      H2872   1.084       .  S
C2866      C2867   1.412       .  A
C2867      C2868   1.408       .  A
C2867      N2874   1.432       .  S
C2868      C2869   1.403       .  A
C2868      H2873   1.084   1_556  S
C2869      C2870   1.422       .  A
C2870      N2871   1.438       .  S
N2871      H2875   1.046       .  S
N2871      H2876   1.044       .  S
N2874      H2877   1.046       .  S
N2874      H2878   1.045       .  S
C2879      C2880   1.416       .  A
C2879      C2884   1.388       .  A
C2879      H2886   1.083       .  S
C2880      C2881   1.404       .  A
C2881      C2882   1.412       .  A
C2882      C2883   1.419       .  A
C2882      H2887   1.084       .  S
C2883      C2884   1.400       .  A
C2884      N2885   1.434       .  S
N2885      H2889   1.045       .  S
N2885      H2890   1.045       .  S
N2888      H2891   1.045       .  S
N2888      H2892   1.046       .  S
C2893      C2894   1.399       .  A
C2893      C2898   1.386       .  A
C2893      H2900   1.086       .  S
C2894      C2895   1.406       .  A
C2895      C2896   1.404       .  A
C2895      N2902   1.436       .  S
C2896      C2897   1.409       .  A
C2896      H2901   1.083       .  S
C2897      C2898   1.412       .  A
C2898      N2899   1.434       .  S
N2899      H2903   1.046       .  S
N2899      H2904   1.046       .  S
N2902      H2905   1.045       .  S
N2902      H2906   1.046       .  S
C2907      C2908   1.415       .  A
C2907      C2912   1.409   1_545  A
C2907      H2914   1.083       .  S
C2908      C2909   1.421       .  A
C2909      C2910   1.414   1_545  A
C2909      N2916   1.431       .  S
C2910      C2911   1.413       .  A
C2910      H2915   1.084       .  S
C2911      C2912   1.411       .  A
C2912      N2913   1.433       .  S
N2913      H2917   1.045   1_565  S
N2913      H2918   1.046       .  S
N2916      H2919   1.045       .  S
N2916      H2920   1.045       .  S
C2921      C2922   1.405       .  A
C2921      C2926   1.390       .  A
C2921      H2928   1.084       .  S
C2922      C2923   1.408       .  A
C2923      C2924   1.393       .  A
C2923      N2930   1.431       .  S
C2924      C2925   1.398       .  A
C2924      H2929   1.084       .  S
C2925      C2926   1.410       .  A
C2926      N2927   1.434       .  S
N2927      H2931   1.043       .  S
N2927      H2932   1.046       .  S
N2930      H2933   1.046       .  S
N2930      H2934   1.042       .  S
C2935      C2936   1.415       .  A
C2935      C2940   1.386       .  A
C2935      H2942   1.084       .  S
C2936      C2937   1.396       .  A
C2937      C2938   1.407       .  A
C2937      N2944   1.431       .  S
C2938      C2939   1.413       .  A
C2938      H2943   1.082       .  S
C2939      C2940   1.398       .  A
C2940      N2941   1.438       .  S
N2941      H2945   1.046       .  S
N2941      H2946   1.045       .  S
N2944      H2947   1.045       .  S
N2944      H2948   1.045       .  S
C2949      C2950   1.412       .  A
C2949      C2954   1.392       .  A
C2949      H2956   1.084       .  S
C2950      C2951   1.414       .  A
C2951      C2952   1.411       .  A
C2951      N2958   1.437       .  S
C2952      C2953   1.407       .  A
C2952      H2957   1.083       .  S
C2953      C2954   1.402       .  A
C2954      N2955   1.430       .  S
N2955      H2959   1.045       .  S
N2955      H2960   1.044       .  S
N2958      H2961   1.045       .  S
N2958      H2962   1.046   1_556  S
C2963      C2964   1.409       .  A
C2963      C2968   1.407       .  A
C2963      H2970   1.084       .  S
C2964      C2965   1.411       .  A
C2965      C2966   1.401       .  A
C2965      N2972   1.433   1_556  S
C2966      C2967   1.402       .  A
C2966      H2971   1.084       .  S
C2967      C2968   1.406       .  A
C2968      N2969   1.436       .  S
N2969      H2973   1.046       .  S
N2969      H2974   1.045       .  S
N2972      H2975   1.046       .  S
C2977      C2978   1.413       .  A
C2977      C2982   1.409   1_556  A
C2977      H2984   1.083       .  S
C2979      C2980   1.419       .  A
C2979      N2986   1.431       .  S
C2980      C2981   1.412       .  A
C2980      H2985   1.083       .  S
C2982      N2983   1.433       .  S
N2983      H2987   1.045       .  S
N2983      H2988   1.046       .  S
N2986      H2989   1.045       .  S
N2986      H2990   1.045       .  S
C2991      C2992   1.408       .  A
C2991      C2996   1.408       .  A
C2991      H2998   1.084       .  S
C2992      C2993   1.411       .  A
C2993      C2994   1.402       .  A
C2993      N3000   1.438       .  S
C2994      C2995   1.401       .  A
C2994      H2999   1.084       .  S
C2995      C2996   1.407       .  A
C2996      N2997   1.436       .  S
N2997      H3001   1.045       .  S
N2997      H3002   1.045       .  S
N3000      H3003   1.045       .  S
N3000      H3004   1.046       .  S
C3005      C3006   1.399       .  A
C3005      C3010   1.396       .  A
C3005      H3012   1.085       .  S
C3006      C3007   1.414       .  A
C3007      C3008   1.402       .  A
C3007      N3014   1.439       .  S
C3008      C3009   1.407       .  A
C3008      H3013   1.084       .  S
C3009      C3010   1.413       .  A
C3010      N3011   1.432       .  S
N3011      H3015   1.045       .  S
N3011      H3016   1.046       .  S
N3014      H3017   1.043   1_455  S
N3014      H3018   1.046       .  S
C3019      C3020   1.407       .  A
C3019      C3024   1.408       .  A
C3019      H3026   1.084       .  S
C3020      C3021   1.413       .  A
C3021      C3022   1.402       .  A
C3021      N3028   1.433       .  S
C3022      C3023   1.402       .  A
C3022      H3027   1.084       .  S
C3023      C3024   1.411       .  A
C3024      N3025   1.437       .  S
N3025      H3029   1.046       .  S
N3025      H3030   1.044       .  S
N3028      H3031   1.046       .  S
N3028      H3032   1.046       .  S
C3033      C3034   1.408       .  A
C3033      C3038   1.410   1_565  A
C3033      H3040   1.084       .  S
C3034      C3035   1.416       .  A
C3035      C3036   1.416   1_565  A
C3035      N3042   1.437       .  S
C3036      C3037   1.409       .  A
C3036      H3041   1.084       .  S
C3037      C3038   1.413       .  A
C3038      N3039   1.432       .  S
N3039      H3043   1.046       .  S
N3039      H3044   1.046   1_545  S
N3042      H3045   1.045       .  S
N3042      H3046   1.046       .  S
C3047      C3048   1.410       .  A
C3047      C3052   1.411       .  A
C3047      H3054   1.083       .  S
C3048      C3049   1.418       .  A
C3049      C3050   1.402       .  A
C3049      N3056   1.433       .  S
C3050      C3051   1.398       .  A
C3050      H3055   1.085       .  S
C3051      C3052   1.407       .  A
C3052      N3053   1.437       .  S
N3053      H3057   1.046       .  S
N3053      H3058   1.046       .  S
N3056      H3059   1.046       .  S
N3056      H3060   1.046       .  S
C3061      C3062   1.408       .  A
C3061      C3066   1.398       .  A
C3061      H3068   1.084       .  S
C3062      C3063   1.413       .  A
C3063      C3064   1.402       .  A
C3063      N3070   1.433       .  S
C3064      C3065   1.402       .  A
C3064      H3069   1.083       .  S
C3065      C3066   1.411       .  A
C3066      N3067   1.432       .  S
N3067      H3071   1.044       .  S
N3067      H3072   1.045       .  S
N3070      H3073   1.046       .  S
N3070      H3074   1.046       .  S
C3075      C3076   1.409       .  A
C3075      C3080   1.410       .  A
C3075      H3082   1.084       .  S
C3076      C3077   1.417       .  A
C3077      C3078   1.417       .  A
C3077      N3084   1.432       .  S
C3078      C3079   1.410       .  A
C3078      H3083   1.084       .  S
C3079      C3080   1.421       .  A
C3080      N3081   1.433       .  S
N3081      H3085   1.044       .  S
N3081      H3086   1.045       .  S
N3084      H3087   1.046       .  S
N3084      H3088   1.045       .  S
C3089      C3090   1.407       .  A
C3089      C3094   1.404       .  A
C3089      H3096   1.084       .  S
C3090      C3091   1.414       .  A
C3091      C3092   1.400       .  A
C3091      N3098   1.433       .  S
C3092      C3093   1.408       .  A
C3092      H3097   1.084       .  S
C3093      C3094   1.407       .  A
C3094      N3095   1.432       .  S
N3095      H3099   1.044       .  S
N3095      H3100   1.046       .  S
N3098      H3101   1.044       .  S
N3098      H3102   1.046       .  S
C3103      C3104   1.405       .  A
C3103      C3108   1.410       .  A
C3103      H3110   1.084       .  S
C3104      C3105   1.410       .  A
C3105      C3106   1.415       .  A
C3105      N3112   1.438       .  S
C3106      C3107   1.409       .  A
C3106      H3111   1.084       .  S
C3107      C3108   1.412       .  A
C3108      N3109   1.438       .  S
N3109      H3113   1.046       .  S
N3109      H3114   1.045       .  S
N3112      H3115   1.040       .  S
N3112      H3116   1.048       .  S
C3117      C3118   1.401       .  A
C3117      C3122   1.404       .  A
C3117      H3124   1.084       .  S
C3118      C3119   1.423       .  A
C3119      C3120   1.384       .  A
C3120      C3121   1.391       .  A
C3120      H3125   1.084       .  S
C3121      C3122   1.413       .  A
C3122      N3123   1.438       .  S
N3123      H3127   1.046       .  S
N3123      H3128   1.045       .  S
N3126      H3129   1.044       .  S
N3126      H3130   1.044       .  S
C3131      C3132   1.404       .  A
C3131      C3136   1.411       .  A
C3131      H3138   1.083       .  S
C3132      C3133   1.429       .  A
C3133      C3134   1.393       .  A
C3133      N3140   1.435       .  S
C3134      C3135   1.388       .  A
C3134      H3139   1.086       .  S
C3135      C3136   1.415       .  A
C3136      N3137   1.437       .  S
N3137      H3141   1.045       .  S
N3137      H3142   1.046       .  S
N3140      H3143   1.046       .  S
N3140      H3144   1.045       .  S
C3145      C3146   1.400       .  A
C3145      C3150   1.398       .  A
C3145      H3152   1.082       .  S
C3146      C3147   1.402       .  A
C3147      C3148   1.403       .  A
C3147      N3154   1.432       .  S
C3148      C3149   1.409       .  A
C3148      H3153   1.084       .  S
C3149      C3150   1.413       .  A
C3150      N3151   1.433       .  S
N3151      H3155   1.046       .  S
N3151      H3156   1.046       .  S
N3154      H3157   1.046       .  S
N3154      H3158   1.046       .  S
C3159      C3164   1.416   1_554  A
C3159      H3166   1.082       .  S
C3160      C3161   1.412       .  A
C3161      C3162   1.422       .  A
C3161      N3168   1.436       .  S
C3162      H3167   1.083       .  S
C3163      C3164   1.416       .  A
C3164      N3165   1.438       .  S
N3165      H3169   1.046       .  S
N3165      H3170   1.046       .  S
N3168      H3171   1.046       .  S
N3168      H3172   1.046       .  S
C3173      C3174   1.407       .  A
C3173      C3178   1.418       .  A
C3173      H3180   1.084       .  S
C3174      C3175   1.410       .  A
C3175      C3176   1.412       .  A
C3175      N3182   1.432       .  S
C3176      C3177   1.406       .  A
C3176      H3181   1.084       .  S
C3177      C3178   1.414       .  A
C3178      N3179   1.437       .  S
N3179      H3183   1.045       .  S
N3179      H3184   1.046       .  S
N3182      H3185   1.046       .  S
N3182      H3186   1.045       .  S
C3187      C3188   1.400       .  A
C3187      C3192   1.399       .  A
C3188      C3189   1.407       .  A
C3189      C3190   1.402       .  A
C3189      N3196   1.432       .  S
C3190      C3191   1.406       .  A
C3190      H3195   1.084       .  S
C3191      C3192   1.424       .  A
C3192      N3193   1.433       .  S
N3193      H3197   1.045       .  S
N3193      H3198   1.045       .  S
N3196      H3199   1.046       .  S
N3196      H3200   1.045       .  S
C3201      C3202   1.398       .  A
C3201      C3206   1.403       .  A
C3201      H3208   1.085       .  S
C3202      C3203   1.409       .  A
C3203      C3204   1.404       .  A
C3203      N3210   1.433       .  S
C3204      C3205   1.405       .  A
C3204      H3209   1.084       .  S
C3205      C3206   1.418       .  A
C3206      N3207   1.433       .  S
N3207      H3211   1.046       .  S
N3207      H3212   1.046       .  S
N3210      H3213   1.045       .  S
N3210      H3214   1.046       .  S
C3215      C3216   1.413       .  A
C3215      C3220   1.392       .  A
C3215      H3222   1.082       .  S
C3216      C3217   1.410       .  A
C3217      C3218   1.410       .  A
C3217      N3224   1.437       .  S
C3218      C3219   1.411       .  A
C3218      H3223   1.084       .  S
C3219      C3220   1.395       .  A
C3220      N3221   1.433       .  S
N3221      H3225   1.045       .  S
N3221      H3226   1.046       .  S
N3224      H3227   1.045       .  S
N3224      H3228   1.046       .  S
C3229      C3230   1.399       .  A
C3229      C3234   1.409       .  A
C3229      H3236   1.083       .  S
C3230      C3231   1.419   1_455  A
C3231      C3232   1.390       .  A
C3231      N3238   1.435       .  S
C3232      C3233   1.395       .  A
C3232      H3237   1.085       .  S
C3233      C3234   1.416   1_655  A
C3234      N3235   1.430       .  S
N3235      H3239   1.046       .  S
N3238      H3241   1.046       .  S
N3238      H3242   1.045       .  S
C3243      C3244   1.405       .  A
C3243      C3248   1.414       .  A
C3243      H3250   1.082       .  S
C3244      C3245   1.409       .  A
C3245      C3246   1.410       .  A
C3245      N3252   1.432       .  S
C3246      C3247   1.403       .  A
C3246      H3251   1.081       .  S
C3247      C3248   1.412       .  A
C3248      N3249   1.437       .  S
N3249      H3253   1.046       .  S
N3249      H3254   1.045       .  S
N3252      H3255   1.046       .  S
N3252      H3256   1.045       .  S
C3257      C3258   1.405       .  A
C3257      C3262   1.399       .  A
C3257      H3264   1.084       .  S
C3258      C3259   1.413       .  A
C3259      C3260   1.403       .  A
C3259      N3266   1.432       .  S
C3260      C3261   1.402       .  A
C3260      H3265   1.084       .  S
C3261      C3262   1.415       .  A
C3262      N3263   1.432       .  S
N3263      H3267   1.044       .  S
N3263      H3268   1.046       .  S
N3266      H3269   1.046       .  S
N3266      H3270   1.045       .  S
C3271      C3272   1.410       .  A
C3271      C3276   1.421   1_565  A
C3271      H3278   1.083       .  S
C3272      C3273   1.418       .  A
C3273      C3274   1.410   1_565  A
C3273      N3280   1.432       .  S
C3274      C3275   1.405       .  A
C3274      H3279   1.084       .  S
C3275      C3276   1.418       .  A
C3276      N3277   1.437       .  S
N3277      H3281   1.046   1_545  S
N3277      H3282   1.045       .  S
N3280      H3283   1.045   1_455  S
N3280      H3284   1.046   1_465  S
C3285      C3286   1.404       .  A
C3285      C3290   1.403       .  A
C3285      H3292   1.084       .  S
C3286      C3287   1.416       .  A
C3287      C3288   1.402       .  A
C3287      N3294   1.433   1_655  S
C3288      C3289   1.399       .  A
C3288      H3293   1.085       .  S
C3289      C3290   1.418       .  A
C3290      N3291   1.439       .  S
N3291      H3295   1.045       .  S
N3291      H3296   1.045       .  S
N3294      H3297   1.046       .  S
N3294      H3298   1.046       .  S
C3299      C3300   1.408   1_455  A
C3299      C3304   1.405       .  A
C3299      H3306   1.084   1_455  S
C3300      C3301   1.410   1_655  A
C3301      C3302   1.406       .  A
C3301      N3308   1.438       .  S
C3302      C3303   1.407       .  A
C3302      H3307   1.085       .  S
C3303      C3304   1.404       .  A
C3304      N3305   1.438       .  S
N3305      H3309   1.046       .  S
N3305      H3310   1.045       .  S
N3308      H3311   1.046   1_455  S
N3308      H3312   1.046       .  S
C3313      C3314   1.411       .  A
C3313      C3318   1.410       .  A
C3313      H3320   1.083       .  S
C3314      C3315   1.407       .  A
C3315      C3316   1.392       .  A
C3315      N3322   1.434       .  S
C3316      C3317   1.403       .  A
C3316      H3321   1.080       .  S
C3317      C3318   1.406       .  A
N3319      H3323   1.045       .  S
N3322      H3325   1.045       .  S
N3322      H3326   1.046       .  S
C3327      C3328   1.404       .  A
C3327      C3332   1.403       .  A
C3327      H3334   1.084       .  S
C3328      C3329   1.416       .  A
C3329      C3330   1.401       .  A
C3329      N3336   1.433       .  S
C3330      C3331   1.398       .  A
C3330      H3335   1.085       .  S
C3331      C3332   1.416       .  A
C3332      N3333   1.438       .  S
N3333      H3337   1.046       .  S
N3333      H3338   1.045       .  S
N3336      H3339   1.044       .  S
N3336      H3340   1.046       .  S
C3341      C3342   1.403       .  A
C3341      C3346   1.397       .  A
C3341      H3348   1.085       .  S
C3342      C3343   1.403       .  A
C3343      C3344   1.400       .  A
C3343      N3350   1.438       .  S
C3344      C3345   1.407       .  A
C3344      H3349   1.084       .  S
C3345      C3346   1.407       .  A
C3346      N3347   1.433       .  S
N3347      H3351   1.046       .  S
N3347      H3352   1.046       .  S
N3350      H3353   1.046       .  S
N3350      H3354   1.045       .  S
C3355      C3356   1.406       .  A
C3355      C3360   1.411       .  A
C3355      H3362   1.084       .  S
C3356      C3357   1.412       .  A
C3357      C3358   1.414       .  A
C3357      N3364   1.432       .  S
C3358      C3359   1.405       .  A
C3358      H3363   1.084       .  S
C3359      C3360   1.410       .  A
C3360      N3361   1.432       .  S
N3361      H3365   1.046       .  S
N3361      H3366   1.046       .  S
N3364      H3367   1.045       .  S
N3364      H3368   1.046       .  S
C3369      C3370   1.405       .  A
C3369      C3374   1.408       .  A
C3369      H3376   1.083       .  S
C3370      C3371   1.413       .  A
C3371      C3372   1.396       .  A
C3371      N3378   1.429   1_556  S
C3372      C3373   1.394       .  A
C3372      H3377   1.085       .  S
C3373      C3374   1.409       .  A
C3374      N3375   1.432       .  S
N3375      H3379   1.046       .  S
N3375      H3380   1.046       .  S
N3378      H3381   1.046       .  S
N3378      H3382   1.046       .  S
C3383      C3384   1.404       .  A
C3383      C3388   1.409       .  A
C3383      H3390   1.084       .  S
C3384      C3385   1.408       .  A
C3385      C3386   1.406       .  A
C3385      N3392   1.433       .  S
C3386      C3387   1.404       .  A
C3386      H3391   1.084       .  S
C3387      C3388   1.408       .  A
C3388      N3389   1.432       .  S
N3389      H3393   1.046       .  S
N3389      H3394   1.045       .  S
N3392      H3395   1.046       .  S
N3392      H3396   1.045       .  S
C3397      C3398   1.402       .  A
C3397      C3402   1.400       .  A
C3397      H3404   1.084       .  S
C3398      C3399   1.414       .  A
C3399      C3400   1.399       .  A
C3399      N3406   1.433       .  S
C3400      C3401   1.397       .  A
C3400      H3405   1.085       .  S
C3401      C3402   1.416       .  A
C3402      N3403   1.438       .  S
N3403      H3407   1.045       .  S
N3406      H3409   1.046       .  S
N3406      H3410   1.046       .  S
C3411      C3412   1.405       .  A
C3411      C3416   1.403       .  A
C3411      H3418   1.084       .  S
C3412      C3413   1.422       .  A
C3413      C3414   1.396       .  A
C3413      N3420   1.433       .  S
C3414      C3415   1.397       .  A
C3414      H3419   1.083       .  S
C3415      C3416   1.408       .  A
C3416      N3417   1.432       .  S
N3417      H3421   1.045       .  S
N3417      H3422   1.045       .  S
N3420      H3423   1.045       .  S
N3420      H3424   1.044       .  S
C3425      C3430   1.413       .  A
C3425      H3432   1.083       .  S
C3426      C3427   1.419       .  A
C3427      C3428   1.404   1_556  A
C3427      N3434   1.432       .  S
C3428      H3433   1.084       .  S
C3429      C3430   1.410       .  A
C3430      N3431   1.437       .  S
N3431      H3435   1.045       .  S
N3431      H3436   1.046       .  S
N3434      H3437   1.046       .  S
N3434      H3438   1.044       .  S
C3439      C3440   1.407       .  A
C3439      C3444   1.407       .  A
C3439      H3446   1.083       .  S
C3440      C3441   1.419       .  A
C3441      C3442   1.404       .  A
C3441      N3448   1.433       .  S
C3442      C3443   1.403       .  A
C3442      H3447   1.084       .  S
C3443      C3444   1.414       .  A
C3444      N3445   1.438       .  S
N3445      H3449   1.045       .  S
N3445      H3450   1.045       .  S
N3448      H3451   1.045       .  S
N3448      H3452   1.043       .  S
C3453      C3454   1.412       .  A
C3453      C3458   1.404       .  A
C3453      H3460   1.084       .  S
C3454      C3455   1.397       .  A
C3455      C3456   1.396       .  A
C3455      N3462   1.439       .  S
C3456      C3457   1.417       .  A
C3456      H3461   1.081       .  S
C3457      C3458   1.410       .  A
C3458      N3459   1.431       .  S
N3459      H3463   1.045       .  S
N3459      H3464   1.045   1_556  S
N3462      H3465   1.045       .  S
N3462      H3466   1.045       .  S
C3467      C3468   1.402       .  A
C3467      C3472   1.407       .  A
C3467      H3474   1.084       .  S
C3468      C3469   1.411       .  A
C3469      C3470   1.392       .  A
C3469      N3476   1.434       .  S
C3470      C3471   1.396       .  A
C3470      H3475   1.083       .  S
C3471      C3472   1.410       .  A
C3472      N3473   1.430       .  S
N3473      H3477   1.045       .  S
N3473      H3478   1.044       .  S
N3476      H3479   1.046       .  S
N3476      H3480   1.045       .  S
C3481      C3482   1.402       .  A
C3481      C3486   1.400       .  A
C3481      H3488   1.083       .  S
C3482      C3483   1.418       .  A
C3483      C3484   1.402       .  A
C3483      N3490   1.431       .  S
C3484      C3485   1.399       .  A
C3484      H3489   1.084       .  S
C3485      C3486   1.412       .  A
C3486      N3487   1.432       .  S
N3487      H3491   1.045       .  S
N3487      H3492   1.045       .  S
N3490      H3493   1.046       .  S
N3490      H3494   1.045       .  S
C3495      C3496   1.408       .  A
C3495      C3500   1.395       .  A
C3495      H3502   1.084       .  S
C3496      C3497   1.410       .  A
C3497      C3498   1.412       .  A
C3497      N3504   1.431       .  S
C3498      C3499   1.406       .  A
C3498      H3503   1.082       .  S
C3499      C3500   1.402       .  A
C3500      N3501   1.431       .  S
N3501      H3505   1.045       .  S
N3501      H3506   1.046       .  S
N3504      H3507   1.044       .  S
N3504      H3508   1.045       .  S
C3509      C3510   1.404       .  A
C3509      C3514   1.409       .  A
C3509      H3516   1.084       .  S
C3510      C3511   1.410       .  A
C3511      C3512   1.414       .  A
C3511      N3518   1.436       .  S
C3512      C3513   1.410       .  A
C3512      H3517   1.084       .  S
C3513      C3514   1.421       .  A
C3514      N3515   1.432       .  S
N3515      H3519   1.043       .  S
N3515      H3520   1.045       .  S
N3518      H3521   1.045       .  S
N3518      H3522   1.046       .  S
C3523      C3524   1.398       .  A
C3523      C3528   1.400       .  A
C3523      H3530   1.084       .  S
C3524      C3525   1.412       .  A
C3525      C3526   1.402       .  A
C3525      N3532   1.433       .  S
C3526      C3527   1.398       .  A
C3526      H3531   1.084       .  S
C3527      C3528   1.412       .  A
C3528      N3529   1.433       .  S
N3529      H3533   1.045       .  S
N3529      H3534   1.046       .  S
N3532      H3535   1.042       .  S
N3532      H3536   1.045       .  S
C3537      C3538   1.400       .  A
C3537      C3542   1.405       .  A
C3537      H3544   1.084       .  S
C3538      C3539   1.420       .  A
C3539      C3540   1.402       .  A
C3539      N3546   1.439       .  S
C3540      C3541   1.400       .  A
C3540      H3545   1.084       .  S
C3541      C3542   1.417       .  A
C3542      N3543   1.433       .  S
N3543      H3547   1.045       .  S
N3543      H3548   1.045       .  S
N3546      H3549   1.045       .  S
N3546      H3550   1.045       .  S
C3551      C3552   1.404       .  A
C3551      C3556   1.400       .  A
C3551      H3558   1.084       .  S
C3552      C3553   1.416       .  A
C3553      C3554   1.409       .  A
C3553      N3560   1.432       .  S
C3554      C3555   1.410       .  A
C3554      H3559   1.083       .  S
C3555      C3556   1.423       .  A
C3556      N3557   1.434       .  S
N3557      H3561   1.044       .  S
N3557      H3562   1.046       .  S
N3560      H3563   1.045       .  S
N3560      H3564   1.044       .  S
C3565      C3566   1.408       .  A
C3565      C3570   1.416       .  A
C3565      H3572   1.083       .  S
C3566      C3567   1.413       .  A
C3567      C3568   1.416       .  A
C3567      N3574   1.431       .  S
C3568      C3569   1.407       .  A
C3568      H3573   1.084       .  S
C3569      C3570   1.422       .  A
C3570      N3571   1.438       .  S
N3571      H3575   1.046       .  S
N3571      H3576   1.044       .  S
N3574      H3577   1.043       .  S
N3574      H3578   1.046       .  S
C3579      C3580   1.414       .  A
C3579      C3584   1.411       .  A
C3579      H3586   1.084       .  S
C3580      C3581   1.393       .  A
C3581      C3582   1.392       .  A
C3581      N3588   1.433       .  S
C3582      C3583   1.411       .  A
C3582      H3587   1.078       .  S
C3583      C3584   1.406       .  A
C3584      N3585   1.437       .  S
N3585      H3589   1.046       .  S
N3585      H3590   1.046       .  S
N3588      H3591   1.046       .  S
N3588      H3592   1.044       .  S
C3593      C3594   1.406   1_655  A
C3593      C3598   1.395       .  A
C3593      H3600   1.084   1_655  S
C3594      C3595   1.410   1_455  A
C3595      C3596   1.402       .  A
C3595      N3602   1.432       .  S
C3596      C3597   1.406       .  A
C3596      H3601   1.082       .  S
C3597      C3598   1.409       .  A
C3598      N3599   1.438       .  S
N3599      H3603   1.046       .  S
N3599      H3604   1.044       .  S
N3602      H3605   1.045       .  S
N3602      H3606   1.045   1_655  S
C3607      C3608   1.405       .  A
C3607      C3612   1.410       .  A
C3607      H3614   1.083       .  S
C3608      C3609   1.415       .  A
C3609      C3610   1.411       .  A
C3609      N3616   1.432       .  S
C3610      C3611   1.408       .  A
C3610      H3615   1.084       .  S
C3611      C3612   1.420       .  A
C3612      N3613   1.439       .  S
N3613      H3617   1.046       .  S
N3613      H3618   1.044       .  S
N3616      H3619   1.046       .  S
N3616      H3620   1.045       .  S
C3621      C3622   1.407       .  A
C3621      C3626   1.399       .  A
C3621      H3628   1.084   1_455  S
C3622      C3623   1.410       .  A
C3623      C3624   1.409       .  A
C3624      C3625   1.409       .  A
C3624      H3629   1.084       .  S
C3625      C3626   1.402       .  A
C3626      N3627   1.433       .  S
N3627      H3631   1.046       .  S
N3627      H3632   1.046       .  S
N3630      H3633   1.045       .  S
N3630      H3634   1.044       .  S
C3635      C3636   1.407       .  A
C3635      C3640   1.403       .  A
C3635      H3642   1.085       .  S
C3636      C3637   1.410       .  A
C3637      C3638   1.401       .  A
C3637      N3644   1.433       .  S
C3638      C3639   1.409   1_655  A
C3638      H3643   1.084   1_655  S
C3639      C3640   1.409   1_455  A
C3640      N3641   1.432       .  S
N3641      H3645   1.043       .  S
N3641      H3646   1.046       .  S
N3644      H3647   1.046       .  S
N3644      H3648   1.044       .  S
C3649      C3650   1.401       .  A
C3649      C3654   1.400       .  A
C3649      H3656   1.081       .  S
C3650      C3651   1.410       .  A
C3651      C3652   1.400       .  A
C3651      N3658   1.430       .  S
C3652      C3653   1.399       .  A
C3652      H3657   1.084       .  S
C3653      C3654   1.414       .  A
C3654      N3655   1.433   1_556  S
N3655      H3659   1.046       .  S
N3655      H3660   1.044       .  S
N3658      H3661   1.046       .  S
N3658      H3662   1.045       .  S
C3663      C3664   1.403       .  A
C3663      C3668   1.408       .  A
C3663      H3670   1.084       .  S
C3664      C3665   1.422       .  A
C3665      C3666   1.415       .  A
C3665      N3672   1.432       .  S
C3666      C3667   1.409       .  A
C3666      H3671   1.083       .  S
C3667      C3668   1.422       .  A
C3668      N3669   1.433       .  S
N3669      H3673   1.044       .  S
N3669      H3674   1.046       .  S
N3672      H3675   1.046       .  S
N3672      H3676   1.044       .  S
C3677      C3678   1.404       .  A
C3677      C3682   1.407       .  A
C3677      H3684   1.084       .  S
C3678      C3679   1.413       .  A
C3679      C3680   1.399       .  A
C3679      N3686   1.433       .  S
C3680      C3681   1.407       .  A
C3680      H3685   1.083       .  S
C3681      C3682   1.413       .  A
C3682      N3683   1.431       .  S
N3683      H3687   1.046       .  S
N3683      H3688   1.046       .  S
N3686      H3689   1.044       .  S
N3686      H3690   1.045       .  S
C3691      C3692   1.400       .  A
C3691      C3696   1.401       .  A
C3691      H3698   1.084       .  S
C3692      C3693   1.409       .  A
C3693      C3694   1.403       .  A
C3693      N3700   1.428       .  S
C3694      C3695   1.404       .  A
C3694      H3699   1.081       .  S
C3695      C3696   1.407       .  A
C3696      N3697   1.431       .  S
N3697      H3701   1.045       .  S
N3697      H3702   1.046       .  S
N3700      H3703   1.041       .  S
N3700      H3704   1.046       .  S
C3705      C3706   1.406       .  A
C3705      C3710   1.408       .  A
C3705      H3712   1.084       .  S
C3706      C3707   1.411       .  A
C3707      C3708   1.419       .  A
C3708      C3709   1.409       .  A
C3708      H3713   1.083       .  S
C3709      C3710   1.412       .  A
C3710      N3711   1.439       .  S
N3711      H3715   1.046       .  S
N3711      H3716   1.045       .  S
N3714      H3717   1.043       .  S
N3714      H3718   1.045       .  S
C3719      C3720   1.410       .  A
C3719      C3724   1.404       .  A
C3719      H3726   1.084       .  S
C3720      C3721   1.410       .  A
C3721      C3722   1.399       .  A
C3721      N3728   1.432       .  S
C3722      C3723   1.404       .  A
C3722      H3727   1.083       .  S
C3723      C3724   1.406       .  A
C3724      N3725   1.432       .  S
N3725      H3729   1.046       .  S
N3725      H3730   1.046       .  S
N3728      H3731   1.046       .  S
N3728      H3732   1.045       .  S
C3733      C3734   1.402       .  A
C3733      C3738   1.408       .  A
C3733      H3740   1.083       .  S
C3734      C3735   1.419       .  A
C3735      C3736   1.409       .  A
C3735      N3742   1.438       .  S
C3736      C3737   1.405       .  A
C3736      H3741   1.084       .  S
C3737      C3738   1.413       .  A
C3738      N3739   1.432       .  S
N3739      H3743   1.045       .  S
N3739      H3744   1.046       .  S
N3742      H3745   1.045       .  S
N3742      H3746   1.046       .  S
C3747      C3748   1.399       .  A
C3747      C3752   1.398       .  A
C3747      H3754   1.084       .  S
C3748      C3749   1.404       .  A
C3749      C3750   1.405       .  A
C3749      N3756   1.432       .  S
C3750      C3751   1.411       .  A
C3750      H3755   1.083       .  S
C3751      C3752   1.415       .  A
C3752      N3753   1.433       .  S
N3753      H3757   1.045       .  S
N3753      H3758   1.045       .  S
N3756      H3759   1.046       .  S
N3756      H3760   1.045       .  S
C3761      C3762   1.412       .  A
C3761      C3766   1.411       .  A
C3761      H3768   1.083       .  S
C3762      C3763   1.417       .  A
C3763      C3764   1.424       .  A
C3763      N3770   1.436       .  S
C3764      C3765   1.413       .  A
C3764      H3769   1.083       .  S
C3765      C3766   1.418       .  A
C3766      N3767   1.439       .  S
N3767      H3771   1.046       .  S
N3767      H3772   1.044       .  S
N3770      H3773   1.046       .  S
N3770      H3774   1.045       .  S
C3775      C3776   1.406       .  A
C3775      C3780   1.395       .  A
C3775      H3782   1.078       .  S
C3776      C3777   1.411       .  A
C3777      C3778   1.409       .  A
C3777      N3784   1.431       .  S
C3778      C3779   1.414       .  A
C3778      H3783   1.083       .  S
C3779      C3780   1.411       .  A
C3780      N3781   1.440       .  S
N3781      H3785   1.046       .  S
N3781      H3786   1.046       .  S
N3784      H3787   1.045       .  S
N3784      H3788   1.046       .  S
C3789      C3790   1.415       .  A
C3789      C3794   1.400       .  A
C3789      H3796   1.083       .  S
C3790      C3791   1.419       .  A
C3791      C3792   1.400       .  A
C3791      N3798   1.432       .  S
C3792      C3793   1.402       .  A
C3792      H3797   1.084       .  S
C3793      C3794   1.398       .  A
C3794      N3795   1.432       .  S
N3795      H3799   1.046       .  S
N3795      H3800   1.046       .  S
N3798      H3801   1.045       .  S
N3798      H3802   1.044       .  S
C3803      C3804   1.408       .  A
C3803      C3808   1.417       .  A
C3803      H3810   1.084       .  S
C3804      C3805   1.410       .  A
C3805      C3806   1.412       .  A
C3805      N3812   1.437       .  S
C3806      C3807   1.411       .  A
C3806      H3811   1.084       .  S
C3807      C3808   1.413       .  A
C3808      N3809   1.431       .  S
N3809      H3813   1.045       .  S
N3809      H3814   1.044       .  S
N3812      H3815   1.046       .  S
N3812      H3816   1.045       .  S
C3817      C3818   1.409       .  A
C3817      C3822   1.404       .  A
C3817      H3824   1.085       .  S
C3818      C3819   1.401       .  A
C3819      C3820   1.394       .  A
C3819      N3826   1.429       .  S
C3820      C3821   1.402       .  A
C3820      H3825   1.084       .  S
C3821      C3822   1.406       .  A
C3822      N3823   1.438       .  S
N3823      H3827   1.045       .  S
N3823      H3828   1.046       .  S
N3826      H3829   1.045       .  S
N3826      H3830   1.046       .  S
C3831      C3832   1.409       .  A
C3831      C3836   1.402       .  A
C3831      H3838   1.083       .  S
C3832      C3833   1.417       .  A
C3833      C3834   1.405       .  A
C3833      N3840   1.433       .  S
C3834      C3835   1.403       .  A
C3834      H3839   1.085       .  S
C3835      C3836   1.404       .  A
C3836      N3837   1.432       .  S
N3837      H3841   1.045       .  S
N3837      H3842   1.046       .  S
N3840      H3843   1.046       .  S
N3840      H3844   1.045       .  S
C3845      C3846   1.404       .  A
C3845      C3850   1.406       .  A
C3845      H3852   1.084       .  S
C3846      C3847   1.413       .  A
C3847      C3848   1.406       .  A
C3847      N3854   1.432       .  S
C3848      C3849   1.405       .  A
C3848      H3853   1.084       .  S
C3849      C3850   1.413       .  A
C3850      N3851   1.436       .  S
N3851      H3855   1.046       .  S
N3851      H3856   1.045       .  S
N3854      H3857   1.046       .  S
N3854      H3858   1.046       .  S
C3859      C3860   1.412       .  A
C3859      C3864   1.408       .  A
C3859      H3866   1.083       .  S
C3860      C3861   1.414       .  A
C3861      C3862   1.395       .  A
C3862      C3863   1.402       .  A
C3862      H3867   1.082   1_556  S
C3863      C3864   1.405       .  A
C3864      N3865   1.437       .  S
N3865      H3869   1.046       .  S
N3865      H3870   1.045       .  S
N3868      H3872   1.046       .  S
C3873      C3874   1.408       .  A
C3873      C3878   1.417       .  A
C3873      H3880   1.084       .  S
C3874      C3875   1.412       .  A
C3875      C3876   1.417       .  A
C3875      N3882   1.437       .  S
C3876      C3877   1.408       .  A
C3876      H3881   1.084       .  S
C3877      C3878   1.411       .  A
C3878      N3879   1.437       .  S
N3879      H3883   1.045       .  S
N3879      H3884   1.046       .  S
N3882      H3885   1.045       .  S
N3882      H3886   1.046       .  S
C3887      C3888   1.405       .  A
C3887      C3892   1.390       .  A
C3887      H3894   1.084       .  S
C3888      C3889   1.414       .  A
C3889      C3890   1.403       .  A
C3889      N3896   1.437       .  S
C3890      C3891   1.400       .  A
C3890      H3895   1.084       .  S
C3891      C3892   1.403       .  A
C3892      N3893   1.439       .  S
N3893      H3897   1.045       .  S
N3893      H3898   1.046       .  S
N3896      H3899   1.045       .  S
N3896      H3900   1.045       .  S
C3901      C3902   1.416       .  A
C3901      C3906   1.407       .  A
C3901      H3908   1.084       .  S
C3902      C3903   1.398       .  A
C3903      C3904   1.383       .  A
C3903      N3910   1.435       .  S
C3904      C3905   1.417       .  A
C3904      H3909   1.083       .  S
C3905      C3906   1.408       .  A
C3906      N3907   1.431       .  S
N3907      H3911   1.045       .  S
N3907      H3912   1.045       .  S
N3910      H3914   1.045       .  S
C3915      C3920   1.414       .  A
C3915      H3922   1.083       .  S
C3916      C3917   1.419       .  A
C3917      C3918   1.413       .  A
C3917      N3924   1.438       .  S
C3918      H3923   1.084   1_556  S
C3919      C3920   1.410       .  A
C3920      N3921   1.437       .  S
N3921      H3925   1.045       .  S
N3921      H3926   1.046       .  S
N3924      H3927   1.045       .  S
N3924      H3928   1.046       .  S
C3929      C3930   1.400       .  A
C3929      C3934   1.407       .  A
C3929      H3936   1.084       .  S
C3930      C3931   1.417       .  A
C3931      C3932   1.403       .  A
C3931      N3938   1.433       .  S
C3932      C3933   1.405       .  A
C3932      H3937   1.084       .  S
C3933      C3934   1.418       .  A
C3934      N3935   1.432       .  S
N3935      H3939   1.045       .  S
N3935      H3940   1.046       .  S
N3938      H3941   1.046       .  S
N3938      H3942   1.044       .  S
C3943      C3944   1.409       .  A
C3943      C3948   1.408       .  A
C3943      H3950   1.083       .  S
C3944      C3945   1.421       .  A
C3945      C3946   1.415       .  A
C3945      N3952   1.437       .  S
C3946      C3947   1.403       .  A
C3946      H3951   1.084       .  S
C3947      C3948   1.410       .  A
C3948      N3949   1.438       .  S
N3949      H3953   1.046       .  S
N3949      H3954   1.046       .  S
N3952      H3955   1.046       .  S
N3952      H3956   1.046       .  S
C3957      C3958   1.413       .  A
C3957      C3962   1.393       .  A
C3957      H3964   1.080       .  S
C3958      C3959   1.398       .  A
C3959      C3960   1.409       .  A
C3959      N3966   1.430       .  S
C3960      C3961   1.418       .  A
C3960      H3965   1.082       .  S
C3961      C3962   1.404       .  A
C3962      N3963   1.433       .  S
N3963      H3967   1.045       .  S
N3963      H3968   1.045       .  S
N3966      H3969   1.045       .  S
N3966      H3970   1.044       .  S
C3971      C3972   1.404       .  A
C3971      C3976   1.393       .  A
C3971      H3978   1.085       .  S
C3972      C3973   1.413       .  A
C3973      C3974   1.401       .  A
C3973      N3980   1.432       .  S
C3974      C3975   1.404       .  A
C3974      H3979   1.084       .  S
C3975      C3976   1.411       .  A
C3976      N3977   1.439       .  S
N3977      H3981   1.046       .  S
N3977      H3982   1.044       .  S
N3980      H3983   1.045       .  S
N3980      H3984   1.046       .  S
C3985      C3986   1.409       .  A
C3985      C3990   1.413       .  A
C3985      H3992   1.084       .  S
C3986      C3987   1.412       .  A
C3987      C3988   1.407       .  A
C3987      N3994   1.432       .  S
C3988      C3989   1.410       .  A
C3988      H3993   1.084       .  S
C3989      C3990   1.411       .  A
C3990      N3991   1.432       .  S
N3991      H3995   1.045       .  S
N3994      H3997   1.045       .  S
N3994      H3998   1.045       .  S
C3999      C4000   1.407       .  A
C3999      C4004   1.398       .  A
C3999      H4006   1.082       .  S
C4000      C4001   1.414       .  A
C4001      C4002   1.406       .  A
C4001      N4008   1.438       .  S
C4002      C4003   1.404       .  A
C4002      H4007   1.084       .  S
C4003      C4004   1.412       .  A
C4004      N4005   1.433       .  S
N4005      H4009   1.045       .  S
N4005      H4010   1.045       .  S
N4008      H4011   1.046       .  S
N4008      H4012   1.046       .  S
C4013      C4014   1.407       .  A
C4013      C4018   1.409       .  A
C4013      H4020   1.084       .  S
C4014      C4015   1.405       .  A
C4015      C4016   1.399       .  A
C4015      N4022   1.433       .  S
C4016      C4017   1.402       .  A
C4016      H4021   1.078       .  S
C4017      C4018   1.406       .  A
C4018      N4019   1.432       .  S
N4019      H4023   1.046       .  S
N4019      H4024   1.046       .  S
N4022      H4025   1.045       .  S
N4022      H4026   1.046       .  S
C4027      C4028   1.406       .  A
C4027      C4032   1.415       .  A
C4027      H4034   1.084       .  S
C4028      C4029   1.407       .  A
C4029      C4030   1.409       .  A
C4029      N4036   1.432       .  S
C4030      C4031   1.407       .  A
C4030      H4035   1.084       .  S
C4031      C4032   1.412       .  A
N4033      H4037   1.046       .  S
N4033      H4038   1.045       .  S
N4036      H4039   1.046       .  S
N4036      H4040   1.045       .  S
C4041      C4042   1.401       .  A
C4041      C4046   1.399       .  A
C4041      H4048   1.084       .  S
C4042      C4043   1.417       .  A
C4043      C4044   1.400       .  A
C4043      N4050   1.434       .  S
C4044      C4045   1.396       .  A
C4044      H4049   1.084       .  S
C4045      C4046   1.408       .  A
C4046      N4047   1.432       .  S
N4047      H4051   1.045       .  S
N4047      H4052   1.045       .  S
N4050      H4053   1.045       .  S
N4050      H4054   1.046       .  S
C4055      C4056   1.408       .  A
C4055      C4060   1.401       .  A
C4055      H4062   1.084       .  S
C4056      C4057   1.408       .  A
C4057      C4058   1.406       .  A
C4057      N4064   1.432       .  S
C4058      C4059   1.409       .  A
C4058      H4063   1.085       .  S
C4059      C4060   1.412       .  A
N4061      H4065   1.046       .  S
N4061      H4066   1.044       .  S
N4064      H4067   1.046       .  S
N4064      H4068   1.045       .  S
C4069      C4070   1.413       .  A
C4069      C4074   1.412       .  A
C4069      H4076   1.083       .  S
C4070      C4071   1.423       .  A
C4071      C4072   1.405       .  A
C4071      N4078   1.431       .  S
C4072      C4073   1.404       .  A
C4072      H4077   1.084       .  S
C4073      C4074   1.415       .  A
C4074      N4075   1.432       .  S
N4075      H4079   1.044       .  S
N4075      H4080   1.046       .  S
N4078      H4081   1.044       .  S
N4078      H4082   1.044       .  S
C4083      C4084   1.409       .  A
C4083      C4088   1.400       .  A
C4083      H4090   1.083       .  S
C4084      C4085   1.412       .  A
C4085      C4086   1.397       .  A
C4085      N4092   1.433       .  S
C4086      C4087   1.401       .  A
C4086      H4091   1.083       .  S
C4087      C4088   1.406       .  A
C4088      N4089   1.438       .  S
N4089      H4093   1.046       .  S
N4089      H4094   1.046       .  S
N4092      H4095   1.043       .  S
N4092      H4096   1.046       .  S
