geometry optimzed in LAMMPS
_audit_creation_date              2020-12-01 
_audit_creation_method            'lammps2cif' 
_symmetry_space_group_name_H-M    'P1' 
_symmetry_Int_Tables_number       1 
_symmetry_cell_setting            triclinic 
loop_ 
_symmetry_equiv_pos_as_xyz 
  x,y,z 
_cell_length_a                    39.52920415 
_cell_length_b                    39.524865203059875 
_cell_length_c                    43.48085679137315 
_cell_angle_alpha                 89.97294190488938 
_cell_angle_beta                  89.97315999846771 
_cell_angle_gamma                 90.01190397998947 
loop_ 
_atom_site_label 
_atom_site_type_symbol 
_atom_site_fract_x 
_atom_site_fract_y 
_atom_site_fract_z 
_atom_site_charge 
Fe1        Fe  0.37344699  0.69574455  0.11842180     1.65800
Fe2        Fe  0.43535903  0.66069975  0.16154666     1.73200
Fe3        Fe  0.45226089  0.73303155  0.12201322     1.54400
O4          O  0.44243221  0.72541480  0.07599489    -0.81900
O5          O  0.46339000  0.69281218  0.18831754    -0.80200
O6          O  0.38909703  0.70694848  0.07427485    -0.84400
O7          O  0.36653588  0.74540048  0.12885388    -0.79300
O8          O  0.49345223  0.69980530  0.11809153    -0.81000
O9          O  0.39606726  0.66976918  0.19105940    -0.83800
C10         C  0.38435955  0.77192505  0.12896341     0.97000
C11         C  0.41625352  0.71645671  0.06112042     1.04400
O12         O  0.42031645  0.69652271  0.13380751    -1.12800
O13         O  0.40900553  0.62249488  0.13987897    -0.75200
O14         O  0.37355397  0.64534785  0.10630028    -0.78700
O15         O  0.41612601  0.77166496  0.12442789    -0.79400
C16         C  0.38677597  0.61979057  0.11905510     0.95900
O17         O  0.35257318  0.68453981  0.16117484    -0.77300
O18         O  0.47615700  0.64935990  0.13447296    -0.82500
C19         C  0.46981905  0.72414698  0.18959385     0.98500
C20         C  0.49829816  0.66819434  0.12216371     1.04400
O21         O  0.46486255  0.74412183  0.16720968    -0.78200
C22         C  0.36513930  0.67701169  0.18719853     1.02700
Fe23       Fe  0.37645231  0.69539448  0.86903077     1.65800
Fe24       Fe  0.43894950  0.66430016  0.82521985     1.73200
Fe25       Fe  0.45418258  0.73356544  0.86839373     1.54400
O26         O  0.41669603  0.77146335  0.86835033    -0.81900
O27         O  0.47703019  0.64986589  0.85414477    -0.80200
O28         O  0.36837146  0.74486828  0.85750609    -0.84400
O29         O  0.38991819  0.70813084  0.91343404    -0.79300
O30         O  0.46671847  0.74802167  0.82393824    -0.81000
O31         O  0.40925440  0.62513632  0.84243456    -0.83800
C32         C  0.41702578  0.71544628  0.92766555     0.97000
C33         C  0.38537668  0.77170966  0.86126860     1.04400
O34         O  0.42321064  0.69779461  0.85451022    -1.12800
O35         O  0.40182646  0.67797480  0.79483524    -0.75200
O36         O  0.35738021  0.68212074  0.82629818    -0.78700
O37         O  0.44443444  0.72245891  0.91377628    -0.79400
C38         C  0.37022144  0.67941352  0.79962119     0.95900
O39         O  0.37922168  0.64500646  0.88149697    -0.77300
O40         O  0.47111285  0.69707583  0.80267758    -0.82500
C41         C  0.49993906  0.66821338  0.86595559     0.98500
C42         C  0.47641172  0.72867451  0.80242999     1.04400
O43         O  0.49580503  0.70002737  0.87013733    -0.78200
C44         C  0.38921614  0.62059304  0.86492764     1.02700
Fe45       Fe  0.70789387  0.62562933  0.11912043     1.65800
Fe46       Fe  0.67309720  0.56405962  0.16245982     1.73200
Fe47       Fe  0.74411036  0.54669923  0.12178709     1.54400
O48         O  0.73535256  0.55631875  0.07562798    -0.81900
O49         O  0.70507578  0.53453978  0.18849348    -0.80200
O50         O  0.72171785  0.61106223  0.07505310    -0.84400
O51         O  0.75703628  0.63221685  0.13231857    -0.79300
O52         O  0.71047347  0.50558743  0.11922972    -0.81000
O53         O  0.68386984  0.60244285  0.19212364    -0.83800
C54         C  0.78343224  0.61423582  0.13023673     0.97000
C55         C  0.72894388  0.58363465  0.06121853     1.04400
O56         O  0.70831280  0.57875553  0.13416950    -1.12800
O57         O  0.63531178  0.59212962  0.14162047    -0.75200
O58         O  0.65799666  0.62442574  0.10520698    -0.78700
O59         O  0.78270765  0.58299955  0.12316637    -0.79400
C60         C  0.63252800  0.61310748  0.11964782     0.95900
O61         O  0.69360983  0.64635099  0.16114467    -0.77300
O62         O  0.66026343  0.52421354  0.13499127    -0.82500
C63         C  0.73655235  0.52860467  0.18948450     0.98500
C64         C  0.67879804  0.50130576  0.12350508     1.04400
O65         O  0.75620906  0.53450336  0.16700986    -0.78200
C66         C  0.68772153  0.63379481  0.18749884     1.02700
Fe67       Fe  0.70968463  0.62298946  0.86798019     1.65800
Fe68       Fe  0.67515500  0.56018543  0.82623791     1.73200
Fe69       Fe  0.74533860  0.54406483  0.86773253     1.54400
O70         O  0.78425205  0.58037611  0.86766446    -0.81900
O71         O  0.66102080  0.52249649  0.85555194    -0.80200
O72         O  0.75917009  0.62909294  0.85589962    -0.84400
O73         O  0.72218404  0.60908422  0.91295675    -0.79300
O74         O  0.75868098  0.53249430  0.82294846    -0.81000
O75         O  0.63718154  0.59009533  0.84470900    -0.83800
C76         C  0.72909083  0.58164337  0.92719814     0.97000
C77         C  0.78545946  0.61143186  0.85990375     1.04400
O78         O  0.70997090  0.57581454  0.85435584    -1.12800
O79         O  0.68791050  0.59652837  0.79521506    -0.75200
O80         O  0.69754447  0.64194786  0.82436274    -0.78700
O81         O  0.73497643  0.55399057  0.91323822    -0.79400
C82         C  0.69316880  0.62793955  0.79826415     0.95900
O83         O  0.65941847  0.62276719  0.88089550    -0.77300
O84         O  0.70725149  0.52830036  0.80249991    -0.82500
C85         C  0.67942995  0.49900160  0.86607830     0.98500
C86         C  0.73907248  0.52451970  0.80107261     1.04400
O87         O  0.71138521  0.50274148  0.86941419    -0.78200
C88         C  0.63409203  0.61149533  0.86629511     1.02700
Fe89       Fe  0.63395187  0.29291316  0.12132789     1.65800
Fe90       Fe  0.56899895  0.32463270  0.16213676     1.73200
Fe91       Fe  0.55645981  0.25440450  0.12002602     1.54400
O92         O  0.56723908  0.26581525  0.07511105    -0.81900
O93         O  0.53662726  0.29147860  0.18415455    -0.80200
O94         O  0.62168790  0.28092018  0.07594581    -0.84400
O95         O  0.64151372  0.24352281  0.13281042    -0.79300
O96         O  0.51418039  0.28703380  0.11740310    -0.81000
O97         O  0.60467771  0.31249540  0.19409774    -0.83800
C98         C  0.62469291  0.21663632  0.12903505     0.97000
C99         C  0.59461045  0.27351973  0.06145502     1.04400
O100        O  0.58661380  0.29066104  0.13421136    -1.12800
O101        O  0.59867432  0.36371992  0.14528794    -0.75200
O102        O  0.63220990  0.34317836  0.10898103    -0.78700
O103        O  0.59380669  0.21670626  0.12081610    -0.79400
C104        C  0.62017969  0.36786189  0.12393900     0.95900
O105        O  0.65103843  0.30521270  0.16546720    -0.77300
O106        O  0.53219035  0.33798570  0.13156686    -0.82500
C107        C  0.53309298  0.25961274  0.18523906     0.98500
C108        C  0.50956960  0.31891685  0.12037789     1.04400
O109        O  0.54394883  0.24015109  0.16433967    -0.78200
C110        C  0.63639166  0.30889764  0.19139813     1.02700
Fe111      Fe  0.63456656  0.28919560  0.86954167     1.65800
Fe112      Fe  0.57239955  0.32309926  0.82604020     1.73200
Fe113      Fe  0.55576616  0.25265016  0.86776761     1.54400
O114        O  0.59206339  0.21413185  0.86807018    -0.81900
O115        O  0.53230952  0.33613778  0.85357171    -0.80200
O116        O  0.64143452  0.23933226  0.85876457    -0.84400
O117        O  0.61990144  0.27784198  0.91396495    -0.79300
O118        O  0.54368499  0.23928959  0.82270670    -0.81000
O119        O  0.60028081  0.36165494  0.84581967    -0.83800
C120        C  0.59242486  0.27079744  0.92779677     0.97000
C121        C  0.62350918  0.21305582  0.86200629     1.04400
O122        O  0.58762499  0.28832293  0.85462917    -1.12800
O123        O  0.61100547  0.31208128  0.79626797    -0.75200
O124        O  0.65490339  0.30099996  0.82695344    -0.78700
O125        O  0.56533859  0.26332255  0.91349451    -0.79400
C126        C  0.64230042  0.30701301  0.80067379     0.95900
O127        O  0.63389239  0.33970069  0.88148151    -0.77300
O128        O  0.54282787  0.29037388  0.80103600    -0.82500
C129        C  0.50969378  0.31727910  0.86518647     0.98500
C130        C  0.53716097  0.25884046  0.80025049     1.04400
O131        O  0.51443507  0.28571046  0.86943862    -0.78200
C132        C  0.62205155  0.36489611  0.86704815     1.02700
Fe133      Fe  0.29794234  0.36224888  0.11958500     1.65800
Fe134      Fe  0.33415851  0.42495182  0.16173732     1.73200
Fe135      Fe  0.26301353  0.44237920  0.12034371     1.54400
O136        O  0.27110611  0.43011110  0.07466860    -0.81900
O137        O  0.30150445  0.45276895  0.18847057    -0.80200
O138        O  0.29074806  0.37709035  0.07435273    -0.84400
O139        O  0.24727072  0.35730562  0.12716009    -0.79300
O140        O  0.29709027  0.48224474  0.11516650    -0.81000
O141        O  0.32494032  0.38580605  0.19110095    -0.83800
C142        C  0.22158749  0.37628081  0.12755574     0.97000
C143        C  0.28137410  0.40388856  0.06047191     1.04400
O144        O  0.29836777  0.40982591  0.13375160    -1.12800
O145        O  0.37254831  0.39869740  0.13996695    -0.75200
O146        O  0.34911698  0.35940086  0.11050414    -0.78700
O147        O  0.22322728  0.40804784  0.12379955    -0.79400
C148        C  0.37491986  0.37407243  0.12139967     0.95900
O149        O  0.30490607  0.34259755  0.16352868    -0.77300
O150        O  0.34622469  0.46611589  0.13523415    -0.82500
C151        C  0.27075282  0.46173405  0.18816377     0.98500
C152        C  0.32820979  0.48746594  0.12092034     1.04400
O153        O  0.25169284  0.45780199  0.16493065    -0.78200
C154        C  0.31435986  0.35567925  0.18880447     1.02700
Fe155      Fe  0.29905430  0.36135639  0.86727876     1.65800
Fe156      Fe  0.33485173  0.42388633  0.82556199     1.73200
Fe157      Fe  0.26530461  0.44108503  0.86750532     1.54400
O158        O  0.22567538  0.40546306  0.86863071    -0.81900
O159        O  0.34940135  0.46190201  0.85442883    -0.80200
O160        O  0.24914496  0.35632697  0.85574017    -0.84400
O161        O  0.28758704  0.37548945  0.91223239    -0.79300
O162        O  0.25150277  0.45252813  0.82268538    -0.81000
O163        O  0.37241198  0.39410265  0.84453940    -0.83800
C164        C  0.28252333  0.40316054  0.92662152     0.97000
C165        C  0.22342204  0.37454684  0.86065623     1.04400
O166        O  0.29982527  0.40864582  0.85370507    -1.12800
O167        O  0.32239081  0.38723362  0.79475499    -0.75200
O168        O  0.31060681  0.34221788  0.82388797    -0.78700
O169        O  0.27696934  0.43103869  0.91280091    -0.79400
C170        C  0.31653789  0.35594832  0.79796739     0.95900
O171        O  0.34947852  0.36019469  0.87956944    -0.77300
O172        O  0.30279104  0.45551611  0.80153435    -0.82500
C173        C  0.33136209  0.48586358  0.86455108     0.98500
C174        C  0.27105435  0.46010618  0.80055237     1.04400
O175        O  0.29945607  0.48237045  0.86830786    -0.78200
C176        C  0.37500757  0.37196896  0.86554067     1.02700
Fe177      Fe  0.70666914  0.36482764  0.37059886     1.65800
Fe178      Fe  0.67360813  0.42826826  0.32814973     1.73200
Fe179      Fe  0.74435553  0.44293196  0.36969707     1.54400
O180        O  0.73359704  0.43304570  0.41509473    -0.81900
O181        O  0.70665156  0.45863162  0.30384981    -0.80200
O182        O  0.71908684  0.37846829  0.41509942    -0.84400
O183        O  0.75629721  0.35742976  0.35894478    -0.79300
O184        O  0.71182335  0.48475859  0.37193966    -0.81000
O185        O  0.68440852  0.39033931  0.29759098    -0.83800
C186        C  0.78290559  0.37485040  0.36239522     0.97000
C187        C  0.72621677  0.40581083  0.42911363     1.04400
O188        O  0.70818821  0.41194354  0.35634077    -1.12800
O189        O  0.63480556  0.40010273  0.34751461    -0.75200
O190        O  0.65634306  0.36636904  0.38331678    -0.78700
O191        O  0.78233089  0.40605251  0.36945544    -0.79400
C192        C  0.63126557  0.37846182  0.36886993     0.95900
O193        O  0.69366447  0.34556634  0.32779867    -0.77300
O194        O  0.66091777  0.46763095  0.35669960    -0.82500
C195        C  0.73827386  0.46396248  0.30323920     0.98500
C196        C  0.68023674  0.48992147  0.36822215     1.04400
O197        O  0.75787806  0.45529433  0.32496097    -0.78200
C198        C  0.68833076  0.35880936  0.30161696     1.02700
Fe199      Fe  0.70803120  0.36270621  0.62134236     1.65800
Fe200      Fe  0.67608987  0.42689066  0.66333008     1.73200
Fe201      Fe  0.74642748  0.44042270  0.62118173     1.54400
O202        O  0.78423646  0.40350693  0.62168246    -0.81900
O203        O  0.66294484  0.46509675  0.63379393    -0.80200
O204        O  0.75779865  0.35509740  0.63211134    -0.84400
O205        O  0.71944745  0.37590431  0.57643386    -0.79300
O206        O  0.76040827  0.45273769  0.66565064    -0.81000
O207        O  0.63699063  0.39814681  0.64557540    -0.83800
C208        C  0.72714800  0.40301970  0.56225989     0.97000
C209        C  0.78452547  0.37237749  0.62893560     1.04400
O210        O  0.71016809  0.40989214  0.63503066    -1.12800
O211        O  0.68783090  0.38996859  0.69446441    -0.75200
O212        O  0.69634216  0.34453589  0.66489283    -0.78700
O213        O  0.73531992  0.43014654  0.57607023    -0.79400
C214        C  0.69195226  0.35838126  0.69099698     0.95900
O215        O  0.65736972  0.36426085  0.60950469    -0.77300
O216        O  0.70919784  0.45817153  0.68630203    -0.82500
C217        C  0.68217524  0.48725193  0.62190596     0.98500
C218        C  0.74094393  0.46242610  0.68705212     1.04400
O219        O  0.71388600  0.48231094  0.61865164    -0.78200
C220        C  0.63266928  0.37671876  0.62423984     1.02700
Fe221      Fe  0.63368160  0.69852286  0.36799196     1.65800
Fe222      Fe  0.56865172  0.66238119  0.33022323     1.73200
Fe223      Fe  0.55523121  0.73444826  0.36924853     1.54400
O224        O  0.56626886  0.72432706  0.41435664    -0.81900
O225        O  0.53549402  0.69389344  0.30719363    -0.80200
O226        O  0.62151000  0.71210996  0.41288699    -0.84400
O227        O  0.63961584  0.74774836  0.35456287    -0.79300
O228        O  0.51325033  0.70159138  0.37252190    -0.81000
O229        O  0.60376607  0.67314504  0.29710880    -0.83800
C230        C  0.62239784  0.77413546  0.35951529     0.97000
C231        C  0.59430555  0.71835188  0.42764208     1.04400
O232        O  0.58606947  0.69838290  0.35606123    -1.12800
O233        O  0.59904762  0.62488658  0.34871906    -0.75200
O234        O  0.63413978  0.64868924  0.38214730    -0.78700
O235        O  0.59172471  0.77297601  0.36827026    -0.79400
C236        C  0.62173332  0.62278422  0.36924536     0.95900
O237        O  0.65026885  0.68498286  0.32428667    -0.77300
O238        O  0.53250353  0.65018410  0.36195586    -0.82500
C239        C  0.53197998  0.72567202  0.30450515     0.98500
C240        C  0.50919701  0.66953141  0.37141810     1.04400
O241        O  0.54301787  0.74645872  0.32430608    -0.78200
C242        C  0.63528235  0.67887613  0.29897496     1.02700
Fe243      Fe  0.63766875  0.69611201  0.61825497     1.65800
Fe244      Fe  0.57625898  0.66065198  0.66225402     1.73200
Fe245      Fe  0.55835235  0.73194022  0.62161459     1.54400
O246        O  0.59428866  0.77099994  0.62276453    -0.81900
O247        O  0.53439048  0.64853164  0.63659549    -0.80200
O248        O  0.64418700  0.74586834  0.62943426    -0.84400
O249        O  0.62218743  0.70795652  0.57416190    -0.79300
O250        O  0.54612358  0.74398375  0.66664190    -0.81000
O251        O  0.60228602  0.62251272  0.63985343    -0.83800
C252        C  0.59464033  0.71598452  0.56093562     0.97000
C253        C  0.62589373  0.77207071  0.62819314     1.04400
O254        O  0.59075156  0.69615774  0.63383614    -1.12800
O255        O  0.61621222  0.66972891  0.69088406    -0.75200
O256        O  0.65918611  0.68433037  0.66038393    -0.78700
O257        O  0.56784660  0.72319988  0.57571308    -0.79400
C258        C  0.64710764  0.67656631  0.68647431     0.95900
O259        O  0.63747765  0.64568391  0.60593519    -0.77300
O260        O  0.54911914  0.69354491  0.68944253    -0.82500
C261        C  0.51203994  0.66708310  0.62427458     0.98500
C262        C  0.54198308  0.72482221  0.68975548     1.04400
O263        O  0.51711311  0.69845537  0.61901120    -0.78200
C264        C  0.62442733  0.62002939  0.61882188     1.02700
Fe265      Fe  0.29781182  0.62778270  0.36920724     1.65800
Fe266      Fe  0.33418318  0.56461106  0.32819065     1.73200
Fe267      Fe  0.26269562  0.54819995  0.36826464     1.54400
O268        O  0.27256245  0.55865364  0.41370315    -0.81900
O269        O  0.30218335  0.53410782  0.30276343    -0.80200
O270        O  0.28737964  0.61325327  0.41427437    -0.84400
O271        O  0.24775269  0.63333109  0.35889712    -0.79300
O272        O  0.29616159  0.50701952  0.37081855    -0.81000
O273        O  0.32395586  0.60210962  0.29737956    -0.83800
C274        C  0.22171429  0.61504303  0.36166294     0.97000
C275        C  0.28021489  0.58562671  0.42804883     1.04400
O276        O  0.29821216  0.58035624  0.35535952    -1.12800
O277        O  0.37189895  0.59294390  0.34891535    -0.75200
O278        O  0.34832694  0.62945053  0.38112481    -0.78700
O279        O  0.22324186  0.58362322  0.36769383    -0.79400
C280        C  0.37419593  0.61601880  0.36909951     0.95900
O281        O  0.30826476  0.64685811  0.32536962    -0.77300
O282        O  0.34687744  0.52550078  0.35677990    -0.82500
C283        C  0.27067991  0.52801417  0.30165605     0.98500
C284        C  0.32788947  0.50250943  0.36745335     1.04400
O285        O  0.25051463  0.53550340  0.32335007    -0.78200
C286        C  0.31603274  0.63303227  0.29985923     1.02700
Fe287      Fe  0.30216393  0.62281581  0.62171807     1.65800
Fe288      Fe  0.33501343  0.55777137  0.66181058     1.73200
Fe289      Fe  0.26412909  0.54508628  0.62030861     1.54400
O290        O  0.22619417  0.58212732  0.62168647    -0.81900
O291        O  0.34786862  0.52109488  0.63101984    -0.80200
O292        O  0.25276091  0.62996621  0.63359865    -0.84400
O293        O  0.28983437  0.61084251  0.57659465    -0.79300
O294        O  0.25063786  0.53207615  0.66479405    -0.81000
O295        O  0.37402452  0.58759291  0.64455844    -0.83800
C296        C  0.28240036  0.58404200  0.56179492     0.97000
C297        C  0.22595884  0.61294464  0.63008811     1.04400
O298        O  0.30046311  0.57535275  0.63434624    -1.12800
O299        O  0.32336419  0.59343325  0.69394788    -0.75200
O300        O  0.31471718  0.63970898  0.66549867    -0.78700
O301        O  0.27491178  0.55636463  0.57514052    -0.79400
C302        C  0.31920317  0.62509261  0.69126211     0.95900
O303        O  0.35246501  0.62183164  0.60918945    -0.77300
O304        O  0.30216777  0.52536653  0.68444951    -0.82500
C305        C  0.32860277  0.49849808  0.62004177     0.98500
C306        C  0.27029770  0.52187622  0.68586720     1.04400
O307        O  0.29675682  0.50310522  0.61728473    -0.78200
C308        C  0.37748282  0.60999631  0.62385797     1.02700
Fe309      Fe  0.37250461  0.29233934  0.36885965     1.65800
Fe310      Fe  0.43383176  0.32686218  0.32422000     1.73200
Fe311      Fe  0.45212979  0.25644288  0.36664947     1.54400
O312        O  0.44115055  0.26442674  0.41245250    -0.81900
O313        O  0.46051343  0.29345803  0.29760717    -0.80200
O314        O  0.38775982  0.28260576  0.41334265    -0.84400
O315        O  0.36648807  0.24201150  0.35967348    -0.79300
O316        O  0.49231890  0.29069727  0.37093839    -0.81000
O317        O  0.39357787  0.31757603  0.29570872    -0.83800
C318        C  0.38503436  0.21592530  0.36003386     0.97000
C319        C  0.41455609  0.27303797  0.42690360     1.04400
O320        O  0.41951433  0.29191091  0.35342473    -1.12800
O321        O  0.40825430  0.36573998  0.34587054    -0.75200
O322        O  0.37205615  0.34336432  0.37927264    -0.78700
O323        O  0.41684014  0.21711451  0.36422983    -0.79400
C324        C  0.38558627  0.36875854  0.36634181     0.95900
O325        O  0.35106234  0.30195073  0.32630467    -0.77300
O326        O  0.47588139  0.33914099  0.34959122    -0.82500
C327        C  0.46915337  0.26262797  0.29819786     0.98500
C328        C  0.49734608  0.32176119  0.36441984     1.04400
O329        O  0.46644034  0.24428641  0.32201635    -0.78200
C330        C  0.36284991  0.30993136  0.30017400     1.02700
Fe331      Fe  0.37442417  0.29110964  0.61815930     1.65800
Fe332      Fe  0.43628428  0.32439721  0.66152163     1.73200
Fe333      Fe  0.45247948  0.25427786  0.62027251     1.54400
O334        O  0.41544910  0.21610264  0.61987539    -0.81900
O335        O  0.47466898  0.33837295  0.63273708    -0.80200
O336        O  0.36712367  0.24226471  0.63123175    -0.84400
O337        O  0.38871450  0.27710521  0.57406964    -0.79300
O338        O  0.46307312  0.24068665  0.66527564    -0.81000
O339        O  0.40671546  0.36250452  0.64262017    -0.83800
C340        C  0.41647559  0.27085593  0.56030492     0.97000
C341        C  0.38443015  0.21564826  0.62781494     1.04400
O342        O  0.42105750  0.28999463  0.63297781    -1.12800
O343        O  0.39898300  0.31147918  0.69176098    -0.75200
O344        O  0.35458979  0.30530870  0.66057262    -0.78700
O345        O  0.44384376  0.26507226  0.57468240    -0.79400
C346        C  0.36746167  0.30872624  0.68719195     0.95900
O347        O  0.37670943  0.34075646  0.60426454    -0.77300
O348        O  0.46800459  0.29215141  0.68544490    -0.82500
C349        C  0.49816752  0.31964440  0.62250668     0.98500
C350        C  0.47229754  0.26037935  0.68668281     1.04400
O351        O  0.49421102  0.28771662  0.61920861    -0.78200
C352        C  0.38692961  0.36581750  0.61980420     1.02700
Fe353      Fe  0.87303918  0.19605820  0.62478582     1.65800
Fe354      Fe  0.93532498  0.16263997  0.66787984     1.73200
Fe355      Fe  0.95196890  0.23119590  0.62452647     1.54400
O356        O  0.94189980  0.21933977  0.57950392    -0.81900
O357        O  0.96818332  0.19476300  0.69025321    -0.80200
O358        O  0.88670519  0.20735730  0.57972467    -0.84400
O359        O  0.86713121  0.24580056  0.63565115    -0.79300
O360        O  0.99257600  0.19679139  0.62339952    -0.81000
O361        O  0.89912570  0.17735725  0.69856781    -0.83800
C362        C  0.88507536  0.27183197  0.63120523     0.97000
C363        C  0.91434711  0.21319740  0.56555811     1.04400
O364        O  0.92004658  0.19659713  0.63874442    -1.12800
O365        O  0.90494131  0.12445930  0.65058112    -0.75200
O366        O  0.87370189  0.14565886  0.61284837    -0.78700
O367        O  0.91613404  0.27030395  0.62363258    -0.79400
C368        C  0.88461955  0.12077643  0.62824644     0.95900
O369        O  0.85406665  0.18495579  0.66842491    -0.77300
O370        O  0.97276676  0.14691767  0.63880989    -0.82500
C371        C  0.97326087  0.22640069  0.69065566     0.98500
C372        C  0.99611499  0.16493133  0.62736558     1.04400
O373        O  0.96416171  0.24577117  0.66893844    -0.78200
C374        C  0.86769549  0.18202690  0.69483345     1.02700
Fe375      Fe  0.87282439  0.19836607  0.37307144     1.65800
Fe376      Fe  0.93614297  0.16498418  0.33130753     1.73200
Fe377      Fe  0.95115383  0.23474647  0.37335943     1.54400
O378        O  0.91419793  0.27297876  0.37377155    -0.81900
O379        O  0.97409687  0.15091834  0.36065994    -0.80200
O380        O  0.86629691  0.24752265  0.35998378    -0.84400
O381        O  0.88569323  0.21185858  0.41768386    -0.79300
O382        O  0.96313042  0.24905751  0.32880555    -0.81000
O383        O  0.90612614  0.12673023  0.34945434    -0.83800
C384        C  0.91319646  0.21708995  0.43214903     0.97000
C385        C  0.88354313  0.27394717  0.36480859     1.04400
O386        O  0.92000732  0.19926865  0.35954186    -1.12800
O387        O  0.89962762  0.17773186  0.30025799    -0.75200
O388        O  0.85430731  0.18447221  0.33023402    -0.78700
O389        O  0.94109949  0.22275852  0.41848490    -0.79400
C390        C  0.86797984  0.18050945  0.30403229     0.95900
O391        O  0.87417928  0.14840875  0.38658162    -0.77300
O392        O  0.96822927  0.19766168  0.30837644    -0.82500
C393        C  0.99751201  0.16982546  0.37079155     0.98500
C394        C  0.97300517  0.22938976  0.30758423     1.04400
O395        O  0.99308302  0.20162098  0.37446533    -0.78200
C396        C  0.88514025  0.12334056  0.37139133     1.02700
Fe397      Fe  0.13924842  0.78930960  0.62339431     1.65800
Fe398      Fe  0.07822337  0.82504216  0.66797051     1.73200
Fe399      Fe  0.05905876  0.75463167  0.62549704     1.54400
O400        O  0.07295396  0.76013221  0.57973563    -0.81900
O401        O  0.05601543  0.79078334  0.69706314    -0.80200
O402        O  0.12341289  0.78558333  0.57856869    -0.84400
O403        O  0.14362878  0.73806053  0.62742490    -0.79300
O404        O  0.02059708  0.78961432  0.61770340    -0.81000
O405        O  0.12097557  0.81962971  0.69394410    -0.83800
C406        C  0.12470833  0.71263128  0.63125113     0.97000
C407        C  0.09784898  0.77291822  0.56520581     1.04400
O408        O  0.09210838  0.78963296  0.63887351    -1.12800
O409        O  0.09942008  0.86400900  0.64298422    -0.75200
O410        O  0.14255652  0.84109349  0.61780950    -0.78700
O411        O  0.09265764  0.71452568  0.63158229    -0.79400
C412        C  0.12574100  0.86666143  0.62647525     0.95900
O413        O  0.16033861  0.79262228  0.66660968    -0.77300
O414        O  0.03331949  0.83468673  0.64596957    -0.82500
C415        C  0.04271352  0.76172928  0.69499733     0.98500
C416        C  0.01382150  0.81906739  0.62775056     1.04400
O417        O  0.04118765  0.74530505  0.66989152    -0.78200
C418        C  0.14985288  0.80616294  0.69118742     1.02700
Fe419      Fe  0.13441118  0.79257213  0.37253075     1.65800
Fe420      Fe  0.07063270  0.82831865  0.33207390     1.73200
Fe421      Fe  0.05525187  0.75714136  0.37295936     1.54400
O422        O  0.09117757  0.71813498  0.37261709    -0.81900
O423        O  0.03176109  0.84099515  0.36111209    -0.80200
O424        O  0.14013273  0.74276154  0.36104976    -0.84400
O425        O  0.12094283  0.78098825  0.41755861    -0.79300
O426        O  0.04283273  0.74424655  0.32816757    -0.81000
O427        O  0.09941757  0.86634883  0.35178133    -0.83800
C428        C  0.09358135  0.77444008  0.43196437     0.97000
C429        C  0.12217307  0.71665130  0.36496253     1.04400
O430        O  0.08688652  0.79276837  0.35939876    -1.12800
O431        O  0.10777424  0.81797270  0.30076714    -0.75200
O432        O  0.15291000  0.80420449  0.32899029    -0.78700
O433        O  0.06592872  0.76773428  0.41828754    -0.79400
C434        C  0.13897776  0.81127288  0.30342875     0.95900
O435        O  0.13533861  0.84294235  0.38479200    -0.77300
O436        O  0.04017527  0.79579760  0.30741214    -0.82500
C437        C  0.00884637  0.82181025  0.37172016     0.98500
C438        C  0.03543766  0.76407222  0.30618913     1.04400
O439        O  0.01366335  0.79013697  0.37520076    -0.78200
C440        C  0.12264398  0.86867191  0.37181446     1.02700
Fe441      Fe  0.80353512  0.86095031  0.62304027     1.65800
Fe442      Fe  0.83700761  0.92355217  0.66643328     1.73200
Fe443      Fe  0.76707683  0.93971274  0.62393814     1.54400
O444        O  0.77728456  0.92947645  0.57854066    -0.81900
O445        O  0.80421501  0.95382956  0.69078950    -0.80200
O446        O  0.79288115  0.87521946  0.57819854    -0.84400
O447        O  0.75339126  0.85415073  0.63298807    -0.79300
O448        O  0.80066604  0.98076236  0.62164741    -0.81000
O449        O  0.82502970  0.88573278  0.69648463    -0.83800
C450        C  0.72713505  0.87219400  0.63019658     0.97000
C451        C  0.78480167  0.90240251  0.56432071     1.04400
O452        O  0.80256623  0.90801873  0.63756132    -1.12800
O453        O  0.87587852  0.89550683  0.64731160    -0.75200
O454        O  0.85435305  0.86148899  0.61179405    -0.78700
O455        O  0.72828167  0.90368865  0.62434080    -0.79400
C456        C  0.87943307  0.87386339  0.62602906     0.95900
O457        O  0.81399076  0.84134413  0.66635007    -0.77300
O458        O  0.85066414  0.96287363  0.63852471    -0.82500
C459        C  0.77275977  0.95986324  0.69081457     0.98500
C460        C  0.83220615  0.98538789  0.62634513     1.04400
O461        O  0.75356382  0.95248577  0.66845589    -0.78200
C462        C  0.81898936  0.85456141  0.69260772     1.02700
Fe463      Fe  0.79859331  0.86525859  0.37177692     1.65800
Fe464      Fe  0.83221389  0.92915465  0.33031279     1.73200
Fe465      Fe  0.76122977  0.94366932  0.37170456     1.54400
O466        O  0.72277086  0.90705106  0.36994059    -0.81900
O467        O  0.84506748  0.96757884  0.35951432    -0.80200
O468        O  0.74899164  0.85835215  0.36033320    -0.84400
O469        O  0.78681109  0.87835719  0.41658589    -0.79300
O470        O  0.74835941  0.95693698  0.32714704    -0.81000
O471        O  0.87084755  0.90039583  0.34907222    -0.83800
C472        C  0.77907235  0.90537012  0.43089198     0.97000
C473        C  0.72235891  0.87587696  0.36263822     1.04400
O474        O  0.79737334  0.91263939  0.35819555    -1.12800
O475        O  0.82093067  0.89214637  0.29918838    -0.75200
O476        O  0.81048940  0.84691219  0.32847632    -0.78700
O477        O  0.77118792  0.93262909  0.41710289    -0.79400
C478        C  0.81582436  0.86070052  0.30252511     0.95900
O479        O  0.84909945  0.86580985  0.38404975    -0.77300
O480        O  0.79973816  0.96020361  0.30635769    -0.82500
C481        C  0.82604008  0.99015439  0.37092720     0.98500
C482        C  0.76810492  0.96517918  0.30541762     1.04400
O483        O  0.79435826  0.98530545  0.37479346    -0.78200
C484        C  0.87428274  0.87835746  0.37005476     1.02700
Fe485      Fe  0.20636095  0.12569746  0.62207668     1.65800
Fe486      Fe  0.17502565  0.06330609  0.66668516     1.73200
Fe487      Fe  0.24421993  0.04766505  0.62284896     1.54400
O488        O  0.23317340  0.05754808  0.57723449    -0.81900
O489        O  0.20863108  0.03401945  0.69082062    -0.80200
O490        O  0.21820959  0.11189401  0.57742451    -0.84400
O491        O  0.25615011  0.13343252  0.63280532    -0.79300
O492        O  0.21111214  0.00638474  0.62099231    -0.81000
O493        O  0.18694006  0.10175437  0.69623310    -0.83800
C494        C  0.28271095  0.11589590  0.62938228     0.97000
C495        C  0.22585863  0.08485211  0.56321609     1.04400
O496        O  0.20852717  0.07885981  0.63696102    -1.12800
O497        O  0.13564617  0.09071954  0.64786266    -0.75200
O498        O  0.15580373  0.12302876  0.61032633    -0.78700
O499        O  0.28212689  0.08455396  0.62277804    -0.79400
C500        C  0.13126885  0.11117648  0.62573124     0.95900
O501        O  0.19413181  0.14579605  0.66483292    -0.77300
O502        O  0.16136339  0.02334685  0.63943088    -0.82500
C503        C  0.24013649  0.02840556  0.69052152     0.98500
C504        C  0.17973622  0.00141294  0.62625604     1.04400
O505        O  0.25873673  0.03502381  0.66746237    -0.78200
C506        C  0.19020300  0.13318339  0.69147036     1.02700
Fe507      Fe  0.20842752  0.12579895  0.37027502     1.65800
Fe508      Fe  0.17534835  0.06239342  0.32745274     1.73200
Fe509      Fe  0.24589092  0.04718181  0.36950980     1.54400
O510        O  0.28466576  0.08311959  0.36680028    -0.81900
O511        O  0.16181384  0.02369168  0.35613459    -0.80200
O512        O  0.25859844  0.13265952  0.36122679    -0.84400
O513        O  0.21781732  0.11176440  0.41551448    -0.79300
O514        O  0.25862248  0.03279677  0.32508335    -0.81000
O515        O  0.13632228  0.09097335  0.34581785    -0.83800
C516        C  0.22727432  0.08494882  0.42935003     0.97000
C517        C  0.28509709  0.11477940  0.36168413     1.04400
O518        O  0.20988284  0.07850802  0.35602814    -1.12800
O519        O  0.18762875  0.09971947  0.29707423    -0.75200
O520        O  0.19936755  0.14471270  0.32630624    -0.78700
O521        O  0.23695092  0.05861151  0.41506626    -0.79400
C522        C  0.19466805  0.13082079  0.30023992     0.95900
O523        O  0.15738013  0.12588841  0.38069334    -0.77300
O524        O  0.20773922  0.03108623  0.30343423    -0.82500
C525        C  0.18031614  0.00180115  0.36923875     0.98500
C526        C  0.23909666  0.02454312  0.30324065     1.04400
O527        O  0.21195143  0.00647868  0.37362182    -0.78200
C528        C  0.13242732  0.11311323  0.36660873     1.02700
Fe529      Fe  0.80283353  0.12539743  0.12383000     1.65800
Fe530      Fe  0.83497073  0.06150967  0.16589410     1.73200
Fe531      Fe  0.76399853  0.04793149  0.12478583     1.54400
O532        O  0.72637147  0.08513442  0.12504613    -0.81900
O533        O  0.84748409  0.02351183  0.13623615    -0.80200
O534        O  0.75326071  0.13338503  0.13480968    -0.84400
O535        O  0.79085811  0.11154668  0.07917328    -0.79300
O536        O  0.75061900  0.03687000  0.16968774    -0.81000
O537        O  0.87411457  0.09010008  0.14783289    -0.83800
C538        C  0.78244930  0.08450418  0.06518466     0.97000
C539        C  0.72635254  0.11637866  0.13190586     1.04400
O540        O  0.80063726  0.07841393  0.13785669    -1.12800
O541        O  0.82364048  0.09845436  0.19689102    -0.75200
O542        O  0.81487368  0.14383481  0.16723080    -0.78700
O543        O  0.77441520  0.05745122  0.07927404    -0.79400
C544        C  0.81944091  0.13000208  0.19333781     0.95900
O545        O  0.85341504  0.12380112  0.11174765    -0.77300
O546        O  0.80205450  0.03044407  0.18955129    -0.82500
C547        C  0.82808999  0.00086028  0.12549955     0.98500
C548        C  0.77019727  0.02738740  0.19107450     1.04400
O549        O  0.79627120  0.00560202  0.12272092    -0.78200
C550        C  0.87819809  0.11177190  0.12663666     1.02700
Fe551      Fe  0.80019277  0.12497790  0.87364476     1.65800
Fe552      Fe  0.83490525  0.06350835  0.82907125     1.73200
Fe553      Fe  0.76426924  0.04515697  0.87138020     1.54400
O554        O  0.77137224  0.05696874  0.91718286    -0.81900
O555        O  0.80145258  0.03750407  0.80181934    -0.80200
O556        O  0.79220722  0.10936019  0.91820889    -0.84400
O557        O  0.74956742  0.13078863  0.86603017    -0.79300
O558        O  0.79857096  0.00531130  0.87659794    -0.81000
O559        O  0.82664219  0.10424191  0.80118170    -0.83800
C560        C  0.72363476  0.11210239  0.86490553     0.97000
C561        C  0.78168762  0.08286606  0.93171542     1.04400
O562        O  0.79976050  0.07785215  0.85813746    -1.12800
O563        O  0.87385640  0.08802865  0.85159328    -0.75200
O564        O  0.85138710  0.12615858  0.88296415    -0.78700
O565        O  0.72484564  0.08011429  0.86764140    -0.79400
C566        C  0.87682859  0.11161767  0.87118666     0.95900
O567        O  0.80819115  0.14647258  0.83075862    -0.77300
O568        O  0.84643524  0.02078645  0.85357541    -0.82500
C569        C  0.77126158  0.02689456  0.80307109     0.98500
C570        C  0.82919965  0.99971258  0.86896774     1.04400
O571        O  0.75305571  0.02926035  0.82700852    -0.78200
C572        C  0.81746297  0.13461936  0.80500125     1.02700
Fe573      Fe  0.87181782  0.79126872  0.12388284     1.65800
Fe574      Fe  0.93439980  0.82558979  0.16683323     1.73200
Fe575      Fe  0.95067131  0.75477302  0.12579533     1.54400
O576        O  0.91469132  0.71601008  0.12689474    -0.81900
O577        O  0.97417672  0.83856876  0.13882916    -0.80200
O578        O  0.86519892  0.74141554  0.13483998    -0.84400
O579        O  0.88637015  0.78012701  0.07933923    -0.79300
O580        O  0.96329818  0.74209804  0.17065871    -0.81000
O581        O  0.90627279  0.86375039  0.14686757    -0.83800
C582        C  0.91384378  0.77256622  0.06571174     0.97000
C583        C  0.88327144  0.71508801  0.13300801     1.04400
O584        O  0.91889016  0.79056375  0.13864566    -1.12800
O585        O  0.89612471  0.81466604  0.19688669    -0.75200
O586        O  0.85193058  0.80294080  0.16666449    -0.78700
O587        O  0.94062461  0.76456268  0.08016644    -0.79400
C588        C  0.86483733  0.80928056  0.19277153     0.95900
O589        O  0.87199949  0.84175321  0.11179681    -0.77300
O590        O  0.96466124  0.79335460  0.19183293    -0.82500
C591        C  0.99671296  0.81971731  0.12703729     0.98500
C592        C  0.97098627  0.76195567  0.19247024     1.14000
O593        O  0.99192486  0.78810225  0.12303085    -0.78200
C594        C  0.88449536  0.86699214  0.12566703     1.02700
Fe595      Fe  0.87259320  0.78962889  0.87264130     1.65800
Fe596      Fe  0.93558346  0.82308890  0.82975551     1.73200
Fe597      Fe  0.95187195  0.75376036  0.87321141     1.54400
O598        O  0.93998994  0.76397199  0.91838292    -0.81900
O599        O  0.96703748  0.79050484  0.80616749    -0.80200
O600        O  0.88580076  0.77951702  0.91778889    -0.84400
O601        O  0.86661456  0.73957043  0.86242209    -0.79300
O602        O  0.99224474  0.78824878  0.87670166    -0.81000
O603        O  0.89831053  0.81035458  0.79926271    -0.83800
C604        C  0.88487144  0.71335048  0.86421071     0.97000
C605        C  0.91285248  0.77224587  0.93214044     1.04400
O606        O  0.92000124  0.78879505  0.85872323    -1.12800
O607        O  0.90644328  0.86176288  0.84808416    -0.75200
O608        O  0.87265112  0.84025614  0.88384662    -0.78700
O609        O  0.91618856  0.71442840  0.87100532    -0.79400
C610        C  0.88460144  0.86526703  0.86925032     0.95900
O611        O  0.85349166  0.80028003  0.82916404    -0.77300
O612        O  0.97424339  0.83759069  0.85817226    -0.82500
C613        C  0.97454278  0.75935088  0.80680953     0.98500
C614        C  0.99666233  0.81972503  0.87130303     1.04400
O615        O  0.96710611  0.74024765  0.82924640    -0.78200
C616        C  0.86693297  0.80512474  0.80297129     1.02700
Fe617      Fe  0.20632141  0.86264866  0.12208725     1.65800
Fe618      Fe  0.17398151  0.92652060  0.16413107     1.73200
Fe619      Fe  0.24500181  0.94028349  0.12287967     1.54400
O620        O  0.28254351  0.90304506  0.12259092    -0.81900
O621        O  0.16162383  0.96552861  0.13522562    -0.80200
O622        O  0.25586171  0.85493056  0.13350573    -0.84400
O623        O  0.21878740  0.87645012  0.07757777    -0.79300
O624        O  0.25863612  0.95141857  0.16788022    -0.81000
O625        O  0.13492527  0.89844390  0.14531433    -0.83800
C626        C  0.22664127  0.90352827  0.06340047     0.97000
C627        C  0.28271684  0.87190584  0.12983868     1.04400
O628        O  0.20835988  0.90973096  0.13604681    -1.12800
O629        O  0.18475636  0.88904329  0.19488976    -0.75200
O630        O  0.19360673  0.84377569  0.16523284    -0.78700
O631        O  0.23416358  0.93085053  0.07731953    -0.79400
C632        C  0.18867794  0.85748908  0.19130719     0.95900
O633        O  0.15582909  0.86426266  0.10962496    -0.77300
O634        O  0.20723475  0.95657243  0.18830239    -0.82500
C635        C  0.18141446  0.98798491  0.12470483     0.98500
C636        C  0.23909968  0.95974970  0.18978649     1.04400
O637        O  0.21301996  0.98257287  0.12136377    -0.78200
C638        C  0.13095562  0.87675853  0.12411784     1.02700
Fe639      Fe  0.20688658  0.86260954  0.87164248     1.65800
Fe640      Fe  0.17431635  0.92560068  0.82763292     1.73200
Fe641      Fe  0.24493730  0.94112017  0.87008396     1.54400
O642        O  0.23670374  0.92954159  0.91553835    -0.81900
O643        O  0.20755133  0.95460476  0.80226912    -0.80200
O644        O  0.21566503  0.87720747  0.91648126    -0.84400
O645        O  0.25725257  0.85517646  0.86353034    -0.79300
O646        O  0.21104563  0.98184555  0.87506669    -0.81000
O647        O  0.18507770  0.88681312  0.79829152    -0.83800
C648        C  0.28386100  0.87294346  0.86321104     0.97000
C649        C  0.22624231  0.90368906  0.93000672     1.04400
O650        O  0.20874129  0.90976129  0.85663545    -1.12800
O651        O  0.13474593  0.89894430  0.84744370    -0.75200
O652        O  0.15575221  0.86297535  0.88150057    -0.78700
O653        O  0.28357013  0.90488584  0.86687988    -0.79400
C654        C  0.13080818  0.87665437  0.86812866     0.95900
O655        O  0.19826114  0.84278100  0.82821662    -0.77300
O656        O  0.16174791  0.96594317  0.85485912    -0.82500
C657        C  0.23864489  0.96227183  0.80292659     0.98500
C658        C  0.17970895  0.98705378  0.86954496     1.04400
O659        O  0.25743376  0.95614429  0.82584418    -0.78200
C660        C  0.19242296  0.85587931  0.80206866     1.02700
Fe661      Fe  0.13783793  0.19960462  0.12285617     1.65800
Fe662      Fe  0.07825309  0.16301608  0.16860917     1.73200
Fe663      Fe  0.05709862  0.23320093  0.12650582     1.54400
O664        O  0.09044486  0.27349883  0.13134281    -0.81900
O665        O  0.03323034  0.15236383  0.14703784    -0.80200
O666        O  0.14196913  0.25082347  0.12826938    -0.84400
O667        O  0.12107656  0.20510888  0.07843123    -0.79300
O668        O  0.04052984  0.24265175  0.17133034    -0.81000
O669        O  0.10018309  0.12437009  0.14381605    -0.83800
C670        C  0.09501921  0.21712172  0.06530786     0.97000
C671        C  0.12244317  0.27593710  0.13129230     1.04400
O672        O  0.09101170  0.19860009  0.13920145    -1.12800
O673        O  0.12126411  0.16953294  0.19424915    -0.75200
O674        O  0.16047844  0.19465453  0.16530021    -0.78700
O675        O  0.06966481  0.22820372  0.08030187    -0.79400
C676        C  0.15050621  0.18190815  0.19039807     0.95900
O677        O  0.14103394  0.14791153  0.11588244    -0.77300
O678        O  0.05543140  0.19666573  0.19764710    -0.82500
C679        C  0.01269272  0.16805451  0.12979190     0.98500
C680        C  0.04223653  0.22578771  0.19619325     1.04400
O681        O  0.01865394  0.19781401  0.11999691    -0.78200
C682        C  0.12534525  0.12212926  0.12585122     1.02700
Fe683      Fe  0.13636981  0.19783344  0.87230580     1.65800
Fe684      Fe  0.07362608  0.16135848  0.83073561     1.73200
Fe685      Fe  0.05627430  0.23245282  0.87195417     1.54400
O686        O  0.06809978  0.22436811  0.91762550    -0.81900
O687        O  0.04472251  0.19359505  0.80457417    -0.80200
O688        O  0.12219230  0.20804260  0.91724562    -0.84400
O689        O  0.14157307  0.24821869  0.86235801    -0.79300
O690        O  0.01600035  0.19804805  0.87633441    -0.81000
O691        O  0.11183805  0.17132445  0.80069428    -0.83800
C692        C  0.12277553  0.27404992  0.86398917     0.97000
C693        C  0.09536584  0.21658371  0.93149153     1.04400
O694        O  0.08878530  0.19719668  0.85855437    -1.12800
O695        O  0.10088034  0.12341276  0.85201250    -0.75200
O696        O  0.13807969  0.14688089  0.88366278    -0.78700
O697        O  0.09120799  0.27225236  0.86940524    -0.79400
C698        C  0.12422589  0.12100515  0.87188944     0.95900
O699        O  0.15593576  0.18823437  0.82869698    -0.77300
O700        O  0.03351417  0.14861574  0.85795573    -0.82500
C701        C  0.03709066  0.22472205  0.80434797     0.98500
C702        C  0.01139964  0.16658650  0.87118766     1.04400
O703        O  0.04178155  0.24405397  0.82725784    -0.78200
C704        C  0.14245714  0.18020976  0.80319184     1.02700
C705        C  0.09584544  0.21747398  0.96572222    -0.05700
C706        C  0.06832789  0.23145028  0.98187322    -0.33100
C707        C  0.06776101  0.23213807  0.01410105     0.36100
C708        C  0.09479218  0.21808504  0.03105573    -0.06100
C709        C  0.12261692  0.20483910  0.01484408    -0.33000
C710        C  0.12336266  0.20445346  0.98272161     0.36000
H711        H  0.04705398  0.24210699  0.96952120     0.16400
O712        O  0.04046834  0.24640962  0.02861892    -0.60500
H713        H  0.14408541  0.19436925  0.02705095     0.16400
O714        O  0.15127892  0.19120507  0.96835061    -0.60600
H715        H  0.14658848  0.16665192  0.96637500     0.43400
H716        H  0.04592362  0.27085008  0.03018073     0.43400
C717        C  0.16371489  0.01994102  0.87833119    -0.05700
C718        C  0.18393351  0.04752813  0.88731254    -0.33100
C719        C  0.17061055  0.08048957  0.88840364     0.36100
C720        C  0.13669357  0.08647536  0.87973652    -0.06100
C721        C  0.11568318  0.05849007  0.87416800    -0.33000
C722        C  0.12866900  0.02556271  0.87392724     0.36000
H723        H  0.21067990  0.04398275  0.89164295     0.16400
O724        O  0.19185518  0.10685793  0.89519888    -0.60500
H725        H  0.08924323  0.06222985  0.86851852     0.16400
O726        O  0.10704541  0.99936938  0.86745445    -0.60600
H727        H  0.10050178  0.99001876  0.88776967     0.43400
H728        H  0.18970098  0.11010323  0.91773880     0.43400
C729        C  0.16717942  0.02217431  0.11831228    -0.05700
C730        C  0.13184193  0.02678901  0.11864600    -0.33100
C731        C  0.11761277  0.05922828  0.11888510     0.36100
C732        C  0.13866915  0.08799034  0.11854561    -0.06100
C733        C  0.17379363  0.08346256  0.11575690    -0.33000
C734        C  0.18811117  0.05102951  0.11578126     0.36000
H735        H  0.11505760  0.00517913  0.12019693     0.16400
O736        O  0.08314044  0.06245898  0.12098200    -0.60500
H737        H  0.19051825  0.10518953  0.11578175     0.16400
O738        O  0.22268137  0.04815872  0.11606976    -0.60600
H739        H  0.22945355  0.04774867  0.09411184     0.43400
H740        H  0.07528293  0.06581588  0.09954350     0.43400
C741        C  0.22687672  0.90320605  0.02924427    -0.05700
C742        C  0.23371487  0.93322772  0.01304220    -0.33100
C743        C  0.23351084  0.93394143  0.98090051     0.36100
C744        C  0.22652495  0.90415916  0.96410307    -0.06100
C745        C  0.21982371  0.87414466  0.98028994    -0.33000
C746        C  0.22015735  0.87338070  0.01237905     0.36000
H747        H  0.23906580  0.95649446  0.02526754     0.16400
O748        O  0.24026103  0.96397626  0.96631092    -0.60500
H749        H  0.21451538  0.85085237  0.96808189     0.16400
O750        O  0.21358619  0.84323797  0.02684410    -0.60600
H751        H  0.23584368  0.83178937  0.02850744     0.43400
H752        H  0.21791527  0.97500515  0.96358742     0.43400
C753        C  0.02997981  0.83613362  0.87782779    -0.05700
C754        C  0.03493126  0.87003700  0.86883338    -0.33100
C755        C  0.06730365  0.88428327  0.86750605     0.36100
C756        C  0.09589010  0.86481898  0.87543686    -0.06100
C757        C  0.09072640  0.83216179  0.88751992    -0.33000
C758        C  0.05821709  0.81774534  0.88865916     0.36000
H759        H  0.01381079  0.88527286  0.86108032     0.16400
O760        O  0.07071539  0.91681854  0.85697725    -0.60500
H761        H  0.11215994  0.81684887  0.89438251     0.16400
O762        O  0.05466660  0.78528046  0.89933865    -0.60600
H763        H  0.06076303  0.77052416  0.88172510     0.43400
H764        H  0.07018084  0.93117102  0.87569917     0.43400
C765        C  0.03032543  0.83520320  0.11978670    -0.05700
C766        C  0.03536209  0.86986406  0.12575981    -0.33100
C767        C  0.06768244  0.88426935  0.12496024     0.36100
C768        C  0.09612350  0.86418699  0.11799253    -0.06100
C769        C  0.09093900  0.83031224  0.10929534    -0.33000
C770        C  0.05849340  0.81571479  0.11032396     0.36000
H771        H  0.01434707  0.88579656  0.13252898     0.16400
O772        O  0.07129136  0.91778164  0.13246710    -0.60500
H773        H  0.11236938  0.81439852  0.10363632     0.16400
O774        O  0.05498602  0.78210490  0.10315828    -0.60600
H775        H  0.06109055  0.76971040  0.12221012     0.43400
H776        H  0.07170307  0.92994898  0.11252009     0.43400
C777        C  0.91434942  0.77325726  0.03154286    -0.05700
C778        C  0.88622762  0.78603742  0.01548053    -0.33100
C779        C  0.88534974  0.78622488  0.98331510     0.36100
C780        C  0.91294944  0.77331230  0.96632160    -0.06100
C781        C  0.94138439  0.76134162  0.98240209    -0.33000
C782        C  0.94239596  0.76147186  0.01453148     0.36000
H783        H  0.86463018  0.79604547  0.02783772     0.16400
O784        O  0.85767098  0.79987004  0.96888318    -0.60500
H785        H  0.96310721  0.75158099  0.97007701     0.16400
O786        O  0.97076060  0.74927631  0.02890749    -0.60600
H787        H  0.98629832  0.76893449  0.03043587     0.43400
H788        H  0.84045195  0.78159756  0.96877124     0.43400
C789        C  0.84497461  0.96634251  0.87601413    -0.05700
C790        C  0.82438930  0.93847907  0.88345449    -0.33100
C791        C  0.83749366  0.90547737  0.88349598     0.36100
C792        C  0.87170404  0.89978266  0.87575669    -0.06100
C793        C  0.89280645  0.92774869  0.87062588    -0.33000
C794        C  0.87992898  0.96070978  0.87111070     0.36000
H795        H  0.79754386  0.94193596  0.88736018     0.16400
O796        O  0.81584540  0.87885429  0.88819072    -0.60500
H797        H  0.91929093  0.92398762  0.86515092     0.16400
O798        O  0.90157005  0.98702724  0.86508436    -0.60600
H799        H  0.90912038  0.99511753  0.88554975     0.43400
H800        H  0.81535984  0.87552404  0.91079637     0.43400
C801        C  0.91146484  0.12383215  0.87871328    -0.05700
C802        C  0.93929673  0.10291864  0.87243215    -0.33100
C803        C  0.97227869  0.11573227  0.87255174     0.36100
C804        C  0.97817268  0.15048412  0.87854215    -0.06100
C805        C  0.95060460  0.17062593  0.88762625    -0.33000
C806        C  0.91756647  0.15757562  0.88792986     0.36000
H807        H  0.93540998  0.07673523  0.86593144     0.16400
O808        O  0.99820475  0.09434535  0.86469458    -0.60500
H809        H  0.95426320  0.19719971  0.89271620     0.16400
O810        O  0.89127419  0.17901391  0.89449452    -0.60600
H811        H  0.88851231  0.17780676  0.91713731     0.43400
H812        H  0.00685123  0.08538710  0.88449000     0.43400
C813        C  0.84336878  0.96724412  0.11845908    -0.05700
C814        C  0.87800794  0.96233201  0.12456161    -0.33100
C815        C  0.89224666  0.93003287  0.12471993     0.36100
C816        C  0.87200629  0.90151304  0.11856787    -0.06100
C817        C  0.83820329  0.90648424  0.10951160    -0.33000
C818        C  0.82384161  0.93901241  0.10935785     0.36000
H819        H  0.89402916  0.98343736  0.13091307     0.16400
O820        O  0.92568002  0.92657096  0.13257268    -0.60500
H821        H  0.82222017  0.88493301  0.10441659     0.16400
O822        O  0.79025913  0.94245319  0.10213356    -0.60600
H823        H  0.78981670  0.94676481  0.07966204     0.43400
H824        H  0.93789124  0.92414740  0.11276859     0.43400
C825        C  0.97960781  0.15157905  0.12266684    -0.05700
C826        C  0.95228664  0.17116463  0.11199648    -0.33100
C827        C  0.91934998  0.15783326  0.11088984     0.36100
C828        C  0.91310682  0.12436228  0.12075689    -0.06100
C829        C  0.94077363  0.10406507  0.12910975    -0.33000
C830        C  0.97365808  0.11716755  0.12984741     0.36000
H831        H  0.95600503  0.19755418  0.10616774     0.16400
O832        O  0.89315626  0.17876550  0.10282773    -0.60500
H833        H  0.93676179  0.07811293  0.13629290     0.16400
O834        O  0.99946573  0.09637090  0.13918201    -0.60600
H835        H  0.00934038  0.08723835  0.11992947     0.43400
H836        H  0.89177841  0.17727632  0.08008750     0.43400
C837        C  0.78149101  0.08266830  0.96586527    -0.05700
C838        C  0.78890417  0.11274951  0.98173454    -0.33100
C839        C  0.78903790  0.11389181  0.01381360     0.36100
C840        C  0.78200107  0.08441362  0.03103177    -0.06100
C841        C  0.77441607  0.05432081  0.01518849    -0.33000
C842        C  0.77416852  0.05322875  0.98303179     0.36000
H843        H  0.79450618  0.13582815  0.96928289     0.16400
O844        O  0.79641099  0.14404152  0.02791799    -0.60500
H845        H  0.76878833  0.03129114  0.02770622     0.16400
O846        O  0.76661881  0.02320281  0.96879732    -0.60600
H847        H  0.78859597  0.01131989  0.96661807     0.43400
H848        H  0.77450074  0.15617844  0.02932215     0.43400
C849        C  0.25244552  0.97327867  0.21887222    -0.05700
C850        C  0.24562984  0.95488307  0.24577937    -0.33100
C851        C  0.24545911  0.97082962  0.27447025     0.36100
C852        C  0.25200482  0.00569879  0.27651034    -0.06100
C853        C  0.26228590  0.02338658  0.25006923    -0.33000
C854        C  0.26254579  0.00731302  0.22122792     0.36000
H855        H  0.23733321  0.92880134  0.24421997     0.16400
O856        O  0.23495107  0.95307600  0.29985374    -0.60500
H857        H  0.26712568  0.05031804  0.25134088     0.16400
O858        O  0.26944958  0.02583192  0.19527956    -0.60600
H859        H  0.24745187  0.03562020  0.18887068     0.43400
H860        H  0.25573708  0.94250157  0.30823643     0.43400
C861        C  0.19525727  0.15135312  0.27206201    -0.05700
C862        C  0.17857949  0.18266347  0.27156310    -0.33100
C863        C  0.16787723  0.19638906  0.24355477     0.36100
C864        C  0.17397696  0.17865520  0.21609709    -0.06100
C865        C  0.19522744  0.15040647  0.21629054    -0.33000
C866        C  0.20604036  0.13671419  0.24415201     0.36000
H867        H  0.17063244  0.19453897  0.29282805     0.16400
O868        O  0.14823806  0.22495371  0.24351387    -0.60500
H869        H  0.20017145  0.13669130  0.19516937     0.16400
O870        O  0.22385294  0.10693476  0.24396503    -0.60600
H871        H  0.24794525  0.11375895  0.24272413     0.43400
H872        H  0.16344396  0.24337697  0.23652950     0.43400
C873        C  0.22620666  0.08522269  0.52894418    -0.05700
C874        C  0.22966667  0.05468169  0.51268422    -0.33100
C875        C  0.22989665  0.05408991  0.48048259     0.36100
C876        C  0.22699390  0.08452124  0.46359149    -0.06100
C877        C  0.22360722  0.11506072  0.47983277    -0.33000
C878        C  0.22308733  0.11564080  0.51202095     0.36000
H879        H  0.23192102  0.03091551  0.52493154     0.16400
O880        O  0.23286454  0.02346918  0.46590047    -0.60500
H881        H  0.22153108  0.13884033  0.46757486     0.16400
O882        O  0.22037721  0.14631654  0.52655591    -0.60600
H883        H  0.19575754  0.15113073  0.52736128     0.43400
H884        H  0.20929687  0.01559155  0.46267486     0.43400
C885        C  0.25229967  0.97990155  0.77582697    -0.05700
C886        C  0.24990791  0.01521662  0.77471724    -0.33100
C887        C  0.25092901  0.03217735  0.74648352     0.36100
C888        C  0.25417223  0.01375680  0.71890386    -0.06100
C889        C  0.26033743  0.97884646  0.72030645    -0.33000
C890        C  0.25942833  0.96185861  0.74866383     0.36000
H891        H  0.24402036  0.02933896  0.79540431     0.16400
O892        O  0.24453802  0.06626111  0.74574034    -0.60500
H893        H  0.26228428  0.96427273  0.69927804     0.16400
O894        O  0.26183513  0.92726661  0.74920782    -0.60600
H895        H  0.28572782  0.92248343  0.75460369     0.43400
H896        H  0.26711745  0.07715761  0.74623653     0.43400
C897        C  0.18616383  0.15553535  0.71806574    -0.05700
C898        C  0.20443488  0.14883439  0.74507857    -0.33100
C899        C  0.19305495  0.16108853  0.77345176     0.36100
C900        C  0.16258799  0.17934586  0.77479251    -0.06100
C901        C  0.14696002  0.18964460  0.74733758    -0.33000
C902        C  0.15852374  0.17781155  0.71900344     0.36000
H903        H  0.22593787  0.13189486  0.74446339     0.16400
O904        O  0.20924151  0.15124839  0.79986040    -0.60500
H905        H  0.12376861  0.20416057  0.74807632     0.16400
O906        O  0.14028512  0.18485846  0.69290745    -0.60600
H907        H  0.12207551  0.16757943  0.69223131     0.43400
H908        H  0.22568693  0.16957829  0.80420858     0.43400
C909        C  0.81868476  0.83956126  0.27499645    -0.05700
C910        C  0.80627454  0.85203519  0.24696306    -0.33100
C911        C  0.81789594  0.83877650  0.21917103     0.36100
C912        C  0.84280858  0.81341999  0.21948953    -0.06100
C913        C  0.85221890  0.79835216  0.24740043    -0.33000
C914        C  0.83982594  0.81094348  0.27518831     0.36000
H915        H  0.78977353  0.87393159  0.24660593     0.16400
O916        O  0.80860708  0.85411052  0.19215380    -0.60500
H917        H  0.87143106  0.77878848  0.24776663     0.16400
O918        O  0.85232505  0.79826926  0.30226120    -0.60600
H919        H  0.83573128  0.78085015  0.30876951     0.43400
H920        H  0.78833114  0.84154728  0.18511075     0.43400
C921        C  0.75506172  0.98043672  0.27706451    -0.05700
C922        C  0.75596777  0.96069559  0.25029035    -0.33100
C923        C  0.75707773  0.97598842  0.22131163     0.36100
C924        C  0.75667435  0.01141803  0.21891614    -0.06100
C925        C  0.75263155  0.03110859  0.24553844    -0.33000
C926        C  0.75175658  0.01576056  0.27462507     0.36000
H927        H  0.75927331  0.93353400  0.25196795     0.16400
O928        O  0.76188495  0.95630834  0.19568580    -0.60500
H929        H  0.75330208  0.05847288  0.24397591     0.16400
O930        O  0.75200547  0.03560892  0.30049099    -0.60600
H931        H  0.72789313  0.04074096  0.30468216     0.43400
H932        H  0.78673783  0.95325850  0.19402122     0.43400
C933        C  0.78358143  0.90267571  0.53016461    -0.05700
C934        C  0.77343073  0.93230726  0.51481663    -0.33100
C935        C  0.77128248  0.93351829  0.48276137     0.36100
C936        C  0.77982141  0.90482357  0.46505828    -0.06100
C937        C  0.78992470  0.87515190  0.48039875    -0.33000
C938        C  0.79168717  0.87381737  0.51248834     0.36000
H939        H  0.76687920  0.95485066  0.52766226     0.16400
O940        O  0.76119750  0.96314682  0.46913544    -0.60500
H941        H  0.79666349  0.85267653  0.46753058     0.16400
O942        O  0.80189092  0.84423116  0.52612836    -0.60600
H943        H  0.78099986  0.83052575  0.52833556     0.43400
H944        H  0.73612146  0.96210545  0.46879546     0.43400
C945        C  0.84545288  0.80767493  0.77558089    -0.05700
C946        C  0.81869298  0.83088474  0.77566671    -0.33100
C947        C  0.80640361  0.84372487  0.74788749     0.36100
C948        C  0.82081441  0.83298043  0.71991319    -0.06100
C949        C  0.84376644  0.80608394  0.71982623    -0.33000
C950        C  0.85620636  0.79348612  0.74756258     0.36000
H951        H  0.80991578  0.84178925  0.79710013     0.16400
O952        O  0.78284438  0.86915989  0.74837071    -0.60500
H953        H  0.85484179  0.79740629  0.69842397     0.16400
O954        O  0.88127320  0.76966700  0.74699954    -0.60600
H955        H  0.86937347  0.74764282  0.74853871     0.43400
H956        H  0.76067408  0.85754971  0.74685954     0.43400
C957        C  0.75822085  0.01044392  0.77514959    -0.05700
C958        C  0.75836874  0.02896082  0.74764881    -0.33100
C959        C  0.75948415  0.01250644  0.71920593     0.36100
C960        C  0.75930220  0.97701088  0.71809489    -0.06100
C961        C  0.75536779  0.95850859  0.74542907    -0.33000
C962        C  0.75494214  0.97504010  0.77397183     0.36000
H963        H  0.76051007  0.05614642  0.74837005     0.16400
O964        O  0.76399872  0.03115444  0.69288211    -0.60500
H965        H  0.75570044  0.93113367  0.74480965     0.16400
O966        O  0.75466696  0.95627391  0.80052565    -0.60600
H967        H  0.77865240  0.95024704  0.80439117     0.43400
H968        H  0.78881871  0.03430474  0.69097616     0.43400
C969        C  0.98940377  0.74960495  0.21953405    -0.05700
C970        C  0.97140626  0.74061032  0.24618975    -0.33100
C971        C  0.98737968  0.74101891  0.27504830     0.36100
C972        C  0.02145589  0.75100414  0.27722441    -0.06100
C973        C  0.03999683  0.75697835  0.25026826    -0.33000
C974        C  0.02424308  0.75625365  0.22155416     0.36000
H975        H  0.94436360  0.73630668  0.24497536     0.16400
O976        O  0.96851508  0.73585632  0.30109978    -0.60500
H977        H  0.06608405  0.76519531  0.25173365     0.16400
O978        O  0.04208594  0.76632322  0.19606796    -0.60600
H979        H  0.05009201  0.74508119  0.18639938     0.43400
H980        H  0.97254959  0.71188538  0.30678137     0.43400
C981        C  0.15953145  0.81383046  0.27541308    -0.05700
C982        C  0.14648790  0.80077198  0.24783456    -0.33100
C983        C  0.15912570  0.81165112  0.21951402     0.36100
C984        C  0.18461331  0.83640757  0.21875992    -0.06100
C985        C  0.20009294  0.84669125  0.24626601    -0.33000
C986        C  0.18793403  0.83522453  0.27459632     0.36000
H987        H  0.12468056  0.78419545  0.24823790     0.16400
O988        O  0.14315073  0.80171258  0.19301040    -0.60500
H989        H  0.21971668  0.86583661  0.24586069     0.16400
O990        O  0.20088206  0.84872625  0.30114884    -0.60600
H991        H  0.21887778  0.83277171  0.30763895     0.43400
H992        H  0.15469253  0.78053897  0.18675410     0.43400
C993        C  0.97482390  0.83692573  0.37785794    -0.05700
C994        C  0.97001986  0.87183340  0.37294496    -0.33100
C995        C  0.93755705  0.88600934  0.37201997     0.36100
C996        C  0.90885917  0.86552686  0.37676973    -0.06100
C997        C  0.91363337  0.83124700  0.38426576    -0.33000
C998        C  0.94615084  0.81688202  0.38475262     0.36000
H999        H  0.99141136  0.88815974  0.36820257     0.16400
O1000       O  0.93414570  0.91993729  0.36605626    -0.60500
H1001       H  0.89193948  0.81496748  0.38791222     0.16400
O1002       O  0.94918663  0.78280190  0.38995279    -0.60600
H1003       H  0.95270195  0.78060242  0.41245079     0.43400
H1004       H  0.93751271  0.92231360  0.34354181     0.43400
C1005       C  0.13666592  0.90267639  0.37850461    -0.05700
C1006       C  0.11565839  0.93114628  0.37620759    -0.33100
C1007       C  0.12924700  0.96384733  0.37603146     0.36100
C1008       C  0.16470568  0.96865312  0.37732575    -0.06100
C1009       C  0.18545433  0.94023456  0.38207679    -0.33000
C1010       C  0.17172715  0.90751367  0.38278691     0.36000
H1011       H  0.08861189  0.92799540  0.37330298     0.16400
O1012       O  0.10762290  0.99074904  0.37278450    -0.60500
H1013       H  0.21268715  0.94305896  0.38319043     0.16400
O1014       O  0.19326017  0.88037386  0.38442418    -0.60600
H1015       H  0.19685564  0.87648782  0.40672597     0.43400
H1016       H  0.10190964  0.99771307  0.39407379     0.43400
C1017       C  0.98082214  0.83513282  0.61999059    -0.05700
C1018       C  0.95338876  0.81482048  0.61090295    -0.33100
C1019       C  0.92030426  0.82770338  0.61061313     0.36100
C1020       C  0.91416342  0.86159360  0.61918807    -0.06100
C1021       C  0.94192214  0.88269772  0.62534627    -0.33000
C1022       C  0.97495163  0.86985477  0.62570871     0.36000
H1023       H  0.95715452  0.78819028  0.60612150     0.16400
O1024       O  0.89401734  0.80621417  0.60410731    -0.60500
H1025       H  0.93790505  0.90903256  0.63124822     0.16400
O1026       O  0.00122833  0.89137683  0.63229586    -0.60600
H1027       H  0.00010838  0.89518134  0.65482739     0.43400
H1028       H  0.88820565  0.79536111  0.62398205     0.43400
C1029       C  0.13842487  0.90111992  0.61903949    -0.05700
C1030       C  0.11673299  0.92902609  0.62231791    -0.33100
C1031       C  0.12935171  0.96210102  0.62202920     0.36100
C1032       C  0.16449968  0.96791684  0.61897345    -0.06100
C1033       C  0.18568246  0.94021173  0.61271800    -0.33000
C1034       C  0.17300990  0.90710150  0.61278804     0.36000
H1035       H  0.08997036  0.92520211  0.62647188     0.16400
O1036       O  0.10718240  0.98834524  0.62645730    -0.60500
H1037       H  0.21264743  0.94387727  0.60975078     0.16400
O1038       O  0.19517480  0.88078607  0.60865510    -0.60600
H1039       H  0.20527662  0.87665241  0.62919251     0.43400
H1040       H  0.10101163  0.99607242  0.60549067     0.43400
C1041       C  0.09700616  0.77325208  0.53118507    -0.05700
C1042       C  0.06577874  0.77394176  0.51588362    -0.33100
C1043       C  0.06418887  0.77484293  0.48375266     0.36100
C1044       C  0.09424607  0.77440143  0.46612842    -0.06100
C1045       C  0.12550440  0.77379334  0.48154394    -0.33000
C1046       C  0.12706388  0.77314808  0.51366289     0.36000
H1047       H  0.04239580  0.77439548  0.52889376     0.16400
O1048       O  0.03303404  0.77639106  0.46995733    -0.60500
H1049       H  0.14899143  0.77336249  0.46869698     0.16400
O1050       O  0.15816926  0.77191699  0.52760746    -0.60600
H1051       H  0.16321820  0.74747411  0.53005502     0.43400
H1052       H  0.02808453  0.80088899  0.46781201     0.43400
C1053       C  0.99280039  0.74608320  0.77990143    -0.05700
C1054       C  0.02815810  0.74824412  0.77930556    -0.33100
C1055       C  0.04545965  0.74891461  0.75118910     0.36100
C1056       C  0.02727624  0.74806643  0.72330035    -0.06100
C1057       C  0.99238992  0.74183421  0.72405109    -0.33000
C1058       C  0.97520406  0.74064249  0.75223656     0.36000
H1059       H  0.04206484  0.75247860  0.80043395     0.16400
O1060       O  0.07981522  0.75360630  0.75113588    -0.60500
H1061       H  0.97800298  0.74114922  0.70285054     0.16400
O1062       O  0.94073130  0.73768579  0.75236584    -0.60600
H1063       H  0.93622109  0.71354460  0.75691901     0.43400
H1064       H  0.08949196  0.73101551  0.74652324     0.43400
C1065       C  0.19238720  0.83462623  0.77449466    -0.05700
C1066       C  0.20552537  0.84819590  0.74714626    -0.33100
C1067       C  0.19560506  0.83521190  0.71876069     0.36100
C1068       C  0.17211108  0.80864132  0.71776775    -0.06100
C1069       C  0.16253483  0.79223753  0.74500461    -0.33000
C1070       C  0.17286427  0.80491511  0.77348120     0.36000
H1071       H  0.22079739  0.87094689  0.74773467     0.16400
O1072       O  0.20469534  0.85200041  0.69240323    -0.60500
H1073       H  0.14429531  0.77182443  0.74428489     0.16400
O1074       O  0.15958274  0.79126782  0.79985448    -0.60600
H1075       H  0.17661837  0.77452115  0.80687041     0.43400
H1076       H  0.22390944  0.83890532  0.68386727     0.43400
C1077       C  0.82262532  0.15104171  0.22087405    -0.05700
C1078       C  0.80934318  0.13894927  0.24874205    -0.33100
C1079       C  0.82104133  0.15163307  0.27671880     0.36100
C1080       C  0.84673734  0.17622956  0.27678682    -0.06100
C1081       C  0.85717578  0.19095177  0.24899656    -0.33000
C1082       C  0.84512901  0.17859033  0.22101045     0.36000
H1083       H  0.79202166  0.11767743  0.24883665     0.16400
O1084       O  0.81079471  0.13647349  0.30354383    -0.60500
H1085       H  0.87688965  0.21002200  0.24890888     0.16400
O1086       O  0.85839997  0.19096959  0.19408913    -0.60600
H1087       H  0.87905973  0.17735584  0.19022987     0.43400
H1088       H  0.79157671  0.15036941  0.31095908     0.43400
C1089       C  0.99240506  0.24228594  0.28129800    -0.05700
C1090       C  0.02709337  0.23544241  0.28090190    -0.33100
C1091       C  0.04458803  0.23345111  0.25305657     0.36100
C1092       C  0.02749925  0.23900548  0.22504411    -0.06100
C1093       C  0.99371041  0.25001143  0.22574294    -0.33000
C1094       C  0.97601020  0.25141236  0.25376729     0.36000
H1095       H  0.03989587  0.22814633  0.30193687     0.16400
O1096       O  0.07787461  0.22367690  0.25323991    -0.60500
H1097       H  0.98010474  0.25410376  0.20443851     0.16400
O1098       O  0.94191208  0.25776760  0.25356404    -0.60600
H1099       H  0.93970058  0.28180995  0.25975097     0.43400
H1100       H  0.07763208  0.19900554  0.25749324     0.43400
C1101       C  0.03156052  0.15421866  0.37585907    -0.05700
C1102       C  0.03647385  0.11999381  0.36794698    -0.33100
C1103       C  0.06891850  0.10585390  0.36632418     0.36100
C1104       C  0.09759918  0.12563779  0.37323513    -0.06100
C1105       C  0.09264552  0.15901169  0.38359749    -0.33000
C1106       C  0.06010270  0.17333637  0.38489448     0.36000
H1107       H  0.01519189  0.10427068  0.36146595     0.16400
O1108       O  0.07227125  0.07263067  0.35768674    -0.60500
H1109       H  0.11423411  0.17473712  0.38918279     0.16400
O1110       O  0.05688941  0.20656060  0.39344932    -0.60600
H1111       H  0.05243647  0.20594898  0.41589497     0.43400
H1112       H  0.06959566  0.07255565  0.33499366     0.43400
C1113       C  0.84156719  0.02382954  0.37760976    -0.05700
C1114       C  0.87664475  0.02802122  0.37310081    -0.33100
C1115       C  0.89149832  0.06012515  0.37290767     0.36100
C1116       C  0.87153959  0.08909436  0.37778212    -0.06100
C1117       C  0.83707187  0.08497767  0.38483680    -0.33000
C1118       C  0.82194225  0.05278811  0.38441897     0.36000
H1119       H  0.89261530  0.00643231  0.36813912     0.16400
O1120       O  0.92537182  0.06295119  0.36651306    -0.60500
H1121       H  0.82124997  0.10698099  0.38858108     0.16400
O1122       O  0.78773755  0.05028949  0.38922370    -0.60600
H1123       H  0.77725376  0.05512047  0.36896831     0.43400
H1124       H  0.93657051  0.06499038  0.38683052     0.43400
C1125       C  0.09623383  0.12268709  0.61936140    -0.05700
C1126       C  0.06901240  0.10207691  0.62824017    -0.33100
C1127       C  0.03593159  0.11463765  0.62894484     0.36100
C1128       C  0.02936685  0.14867649  0.62067190    -0.06100
C1129       C  0.05628715  0.16834821  0.60931375    -0.33000
C1130       C  0.08942899  0.15568516  0.60866814     0.36000
H1131       H  0.07355027  0.07643224  0.63606338     0.16400
O1132       O  0.01053427  0.09362997  0.63891104    -0.60500
H1133       H  0.05206193  0.19434839  0.60243972     0.16400
O1134       O  0.11517685  0.17661782  0.59942602    -0.60600
H1135       H  0.12200733  0.18915490  0.61817654     0.43400
H1136       H  0.01194157  0.09397938  0.66167785     0.43400
C1137       C  0.87274095  0.08613909  0.62108203    -0.05700
C1138       C  0.89419481  0.05870210  0.62711679    -0.33100
C1139       C  0.88217156  0.02548529  0.62607730     0.36100
C1140       C  0.84760834  0.01906721  0.61980137    -0.06100
C1141       C  0.82687272  0.04644184  0.61122374    -0.33000
C1142       C  0.83926012  0.07971307  0.61156216     0.36000
H1143       H  0.92025713  0.06308230  0.63376357     0.16400
O1144       O  0.90413803  0.99977804  0.63315643    -0.60500
H1145       H  0.80041181  0.04237679  0.60591987     0.16400
O1146       O  0.81750932  0.10584836  0.60533352    -0.60600
H1147       H  0.81890698  0.10917070  0.58274338     0.43400
H1148       H  0.91276813  0.99161807  0.61306255     0.43400
C1149       C  0.91426829  0.21337045  0.53140867    -0.05700
C1150       C  0.88335266  0.21419447  0.51546497    -0.33100
C1151       C  0.88245336  0.21568425  0.48332417     0.36100
C1152       C  0.91290705  0.21611605  0.46628394    -0.06100
C1153       C  0.94377364  0.21494431  0.48224435    -0.33000
C1154       C  0.94467607  0.21335526  0.51432579     0.36000
H1155       H  0.85961142  0.21419785  0.52792471     0.16400
O1156       O  0.85157919  0.21679673  0.46897060    -0.60500
H1157       H  0.96754929  0.21486064  0.46983901     0.16400
O1158       O  0.97557077  0.21177349  0.52860964    -0.60600
H1159       H  0.98122443  0.18734103  0.52948266     0.43400
H1160       H  0.84603751  0.24120190  0.46724680     0.43400
C1161       C  0.99128302  0.23966058  0.71754613    -0.05700
C1162       C  0.97282948  0.24750269  0.74422246    -0.33100
C1163       C  0.98850392  0.24678445  0.77319136     0.36100
C1164       C  0.02285234  0.23784699  0.77544512    -0.06100
C1165       C  0.04184262  0.23339684  0.74848585    -0.33000
C1166       C  0.02632156  0.23432715  0.71965445     0.36000
H1167       H  0.94568625  0.25094165  0.74288548     0.16400
O1168       O  0.96917576  0.25044705  0.79916452    -0.60500
H1169       H  0.06821112  0.22624283  0.74996825     0.16400
O1170       O  0.04471545  0.22568907  0.69407406    -0.60600
H1171       H  0.05292198  0.24747489  0.68552740     0.43400
H1172       H  0.97158015  0.27455654  0.80501016     0.43400
C1173       C  0.84639327  0.18076212  0.72248207    -0.05700
C1174       C  0.81824357  0.15932222  0.72238279    -0.33100
C1175       C  0.80558745  0.14664151  0.75007889     0.36100
C1176       C  0.82005636  0.15681021  0.77813952    -0.06100
C1177       C  0.84462059  0.18232149  0.77833238    -0.33000
C1178       C  0.85816613  0.19407828  0.75060860     0.36000
H1179       H  0.80890150  0.14892519  0.70094183     0.16400
O1180       O  0.78175459  0.12149429  0.74942213    -0.60500
H1181       H  0.85611760  0.19015120  0.79981151     0.16400
O1182       O  0.88522785  0.21577289  0.75131843    -0.60600
H1183       H  0.87537473  0.23864600  0.74855853     0.43400
H1184       H  0.79433242  0.10109550  0.74268657     0.43400
C1185       C  0.31517261  0.13383809  0.63288820    -0.05700
C1186       C  0.31875928  0.15598681  0.65781888    -0.33100
C1187       C  0.34399075  0.18068431  0.65783344     0.36100
C1188       C  0.36625715  0.18349638  0.63265757    -0.06100
C1189       C  0.36497186  0.15913257  0.60917644    -0.33000
C1190       C  0.33953888  0.13423020  0.60921656     0.36000
H1191       H  0.30043916  0.15566844  0.67638249     0.16400
O1192       O  0.34561616  0.20327025  0.68178044    -0.60500
H1193       H  0.38163893  0.16125787  0.58947961     0.16400
O1194       O  0.33632176  0.11317738  0.58433902    -0.60600
H1195       H  0.35133548  0.09369228  0.58884295     0.43400
H1196       H  0.32665613  0.21931643  0.67841352     0.43400
C1197       C  0.36755825  0.18331596  0.35563154    -0.05700
C1198       C  0.34422098  0.18091615  0.33147072    -0.33100
C1199       C  0.31912791  0.15605622  0.33168324     0.36100
C1200       C  0.31721022  0.13286543  0.35622259    -0.06100
C1201       C  0.34277410  0.13285696  0.37866284    -0.33000
C1202       C  0.36799106  0.15800025  0.37845931     0.36000
H1203       H  0.34379555  0.20004857  0.31359533     0.16400
O1204       O  0.29528745  0.15575806  0.30871682    -0.60500
H1205       H  0.34140159  0.11539830  0.39783967     0.16400
O1206       O  0.39019708  0.16001594  0.40259589    -0.60600
H1207       H  0.41019213  0.14670414  0.39604356     0.43400
H1208       H  0.27954894  0.17455135  0.31360886     0.43400
C1209       C  0.41478683  0.27187310  0.46101129    -0.05700
C1210       C  0.44568640  0.26906126  0.47677325    -0.33100
C1211       C  0.44677112  0.26823647  0.50892903     0.36100
C1212       C  0.41653417  0.27049642  0.52614873    -0.06100
C1213       C  0.38562871  0.27291170  0.51032210    -0.33000
C1214       C  0.38452115  0.27338825  0.47823032     0.36000
H1215       H  0.46930522  0.26782926  0.46417358     0.16400
O1216       O  0.47767679  0.26620136  0.52313438    -0.60500
H1217       H  0.36195336  0.27434488  0.52281506     0.16400
O1218       O  0.35357211  0.27532523  0.46408020    -0.60600
H1219       H  0.34640354  0.25149478  0.46102456     0.43400
H1220       H  0.48296863  0.24168473  0.52398677     0.43400
C1221       C  0.14219256  0.68021351  0.63618622    -0.05700
C1222       C  0.16621083  0.67898064  0.65983128    -0.33100
C1223       C  0.19175748  0.65467577  0.65966743     0.36100
C1224       C  0.19376396  0.63105515  0.63545551    -0.06100
C1225       C  0.16758484  0.62988328  0.61359080    -0.33000
C1226       C  0.14179951  0.65445186  0.61383242     0.36000
H1227       H  0.16681304  0.69871210  0.67714461     0.16400
O1228       O  0.21646890  0.65615672  0.68178453    -0.60500
H1229       H  0.16881585  0.61198133  0.59476437     0.16400
O1230       O  0.11893293  0.65546501  0.59015844    -0.60600
H1231       H  0.09969238  0.64131492  0.59714310     0.43400
H1232       H  0.20872115  0.64069531  0.69830234     0.43400
C1233       C  0.34406467  0.46507525  0.61275103    -0.05700
C1234       C  0.37914082  0.46087951  0.61713164    -0.33100
C1235       C  0.39386497  0.42876604  0.61736035     0.36100
C1236       C  0.37372060  0.39992207  0.61274974    -0.06100
C1237       C  0.33933414  0.40406940  0.60547108    -0.33000
C1238       C  0.32440403  0.43628612  0.60553222     0.36000
H1239       H  0.39517244  0.48241318  0.62213777     0.16400
O1240       O  0.42772322  0.42574305  0.62370586    -0.60500
H1241       H  0.32343254  0.38209454  0.60184754     0.16400
O1242       O  0.29021425  0.43885112  0.60078093    -0.60600
H1243       H  0.28767468  0.44314265  0.57842446     0.43400
H1244       H  0.43926211  0.42846551  0.60360035     0.43400
C1245       C  0.18887537  0.63248768  0.35833935    -0.05700
C1246       C  0.16644829  0.63433072  0.38338992    -0.33100
C1247       C  0.14176600  0.65998952  0.38472825     0.36100
C1248       C  0.13928080  0.68375932  0.36064829    -0.06100
C1249       C  0.15932781  0.67949188  0.33432172    -0.33000
C1250       C  0.18398380  0.65420061  0.33307226     0.36000
H1251       H  0.17016673  0.61807021  0.40317133     0.16400
O1252       O  0.12254982  0.66355106  0.41080554    -0.60500
H1253       H  0.15757305  0.69744841  0.31553673     0.16400
O1254       O  0.20469346  0.65212658  0.30778567    -0.60600
H1255       H  0.22144448  0.67061539  0.31024041     0.43400
H1256       H  0.13617030  0.67798937  0.42474960     0.43400
C1257       C  0.34339453  0.46877514  0.37388826    -0.05700
C1258       C  0.37839085  0.46434631  0.36911705    -0.33100
C1259       C  0.39297935  0.43208454  0.36873634     0.36100
C1260       C  0.37273169  0.40320120  0.37343589    -0.06100
C1261       C  0.33837512  0.40766228  0.38078409    -0.33000
C1262       C  0.32365297  0.43997956  0.38096362     0.36000
H1263       H  0.39446039  0.48585512  0.36408650     0.16400
O1264       O  0.42680084  0.42905257  0.36221021    -0.60500
H1265       H  0.32225719  0.38584210  0.38439586     0.16400
O1266       O  0.28949783  0.44264842  0.38588390    -0.60600
H1267       H  0.28707512  0.44680802  0.40827000     0.43400
H1268       H  0.43822274  0.42855527  0.38250890     0.43400
C1269       C  0.28092315  0.58490207  0.46228132    -0.05700
C1270       C  0.28859097  0.61457598  0.47870149    -0.33100
C1271       C  0.28955049  0.61476346  0.51088580     0.36100
C1272       C  0.28236390  0.58491714  0.52758179    -0.06100
C1273       C  0.27507148  0.55518954  0.51114618    -0.33000
C1274       C  0.27428897  0.55493958  0.47901100     0.36000
H1275       H  0.29397300  0.63793591  0.46661148     0.16400
O1276       O  0.29714490  0.64448500  0.52561698    -0.60500
H1277       H  0.26986063  0.53175676  0.52318575     0.16400
O1278       O  0.26755117  0.52496327  0.46435096    -0.60600
H1279       H  0.24251730  0.52324395  0.46386748     0.43400
H1280       H  0.32219338  0.64483264  0.52715500     0.43400
C1281       C  0.69438401  0.85458932  0.63342777    -0.05700
C1282       C  0.68986019  0.83314349  0.65879333    -0.33100
C1283       C  0.66455626  0.80847070  0.65873782     0.36100
C1284       C  0.64343054  0.80463932  0.63291731    -0.06100
C1285       C  0.64565771  0.82821176  0.60880038    -0.33000
C1286       C  0.67112754  0.85311412  0.60888950     0.36000
H1287       H  0.70755978  0.83396771  0.67781714     0.16400
O1288       O  0.66264188  0.78614626  0.68284648    -0.60500
H1289       H  0.62982708  0.82534078  0.58863317     0.16400
O1290       O  0.67507556  0.87359438  0.58366214    -0.60600
H1291       H  0.69063956  0.86114657  0.56977836     0.43400
H1292       H  0.64624979  0.79637929  0.69738973     0.43400
C1293       C  0.47809476  0.65184604  0.61803188    -0.05700
C1294       C  0.44954894  0.67289896  0.61533587    -0.33100
C1295       C  0.41669290  0.65937031  0.61557918     0.36100
C1296       C  0.41173353  0.62413349  0.61823498    -0.06100
C1297       C  0.44014534  0.60292811  0.61924227    -0.33000
C1298       C  0.47300056  0.61636881  0.61873327     0.36000
H1299       H  0.45251695  0.70014164  0.61493232     0.16400
O1300       O  0.38959584  0.68105665  0.61542803    -0.60500
H1301       H  0.43685969  0.57578920  0.62119758     0.16400
O1302       O  0.49988794  0.59450543  0.62022248    -0.60600
H1303       H  0.50522528  0.58888438  0.59852654     0.43400
H1304       H  0.38462106  0.68559227  0.63741561     0.43400
C1305       C  0.64019461  0.80685764  0.35584699    -0.05700
C1306       C  0.66323656  0.81025584  0.33147849    -0.33100
C1307       C  0.68786559  0.83558494  0.33182649     0.36100
C1308       C  0.69015227  0.85786485  0.35702204    -0.06100
C1309       C  0.66488094  0.85694513  0.37973440    -0.33000
C1310       C  0.63981847  0.83161819  0.37919622     0.36000
H1311       H  0.66364822  0.79171029  0.31311948     0.16400
O1312       O  0.71153301  0.83648168  0.30874389    -0.60500
H1313       H  0.66637600  0.87379196  0.39933368     0.16400
O1314       O  0.61788249  0.82882243  0.40349123    -0.60600
H1315       H  0.59893331  0.84433518  0.39851910     0.43400
H1316       H  0.70245859  0.85272369  0.29342744     0.43400
C1317       C  0.47550308  0.65428520  0.37861817    -0.05700
C1318       C  0.44781518  0.67512733  0.38609103    -0.33100
C1319       C  0.41460854  0.66234911  0.38597806     0.36100
C1320       C  0.40853726  0.62840179  0.37742994    -0.06100
C1321       C  0.43634645  0.60693510  0.37301265    -0.33000
C1322       C  0.46944706  0.61932362  0.37405487     0.36000
H1323       H  0.45161717  0.70184848  0.39040959     0.16400
O1324       O  0.38825241  0.68403929  0.39159421    -0.60500
H1325       H  0.43240337  0.58051749  0.36738873     0.16400
O1326       O  0.49543672  0.59720430  0.36838225    -0.60600
H1327       H  0.50263053  0.58902599  0.38892579     0.43400
H1328       H  0.38592216  0.68454137  0.41430372     0.43400
C1329       C  0.59494623  0.71829158  0.46174282    -0.05700
C1330       C  0.56419752  0.71855283  0.47802531    -0.33100
C1331       C  0.56358373  0.71795074  0.51014593     0.36100
C1332       C  0.59415160  0.71700036  0.52684738    -0.06100
C1333       C  0.62491644  0.71682776  0.51058553    -0.33000
C1334       C  0.62553330  0.71733626  0.47844736     0.36000
H1335       H  0.54028229  0.71882002  0.46586652     0.16400
O1336       O  0.53287061  0.71705665  0.52482241    -0.60500
H1337       H  0.64880380  0.71638830  0.52278558     0.16400
O1338       O  0.65625831  0.71761059  0.46376731    -0.60600
H1339       H  0.66310019  0.69351296  0.46237801     0.43400
H1340       H  0.52525143  0.74095328  0.52571999     0.43400
C1341       C  0.86763972  0.30458348  0.63462094    -0.05700
C1342       C  0.84543255  0.30824272  0.65956006    -0.33100
C1343       C  0.82019414  0.33284343  0.65920858     0.36100
C1344       C  0.81679099  0.35441256  0.63365054    -0.06100
C1345       C  0.84129289  0.35342045  0.61023435    -0.33000
C1346       C  0.86662519  0.32839903  0.61049762     0.36000
H1347       H  0.84598219  0.29018453  0.67833324     0.16400
O1348       O  0.79707821  0.33366086  0.68274904    -0.60500
H1349       H  0.83891793  0.36985884  0.59040455     0.16400
O1350       O  0.88800542  0.32542777  0.58578710    -0.60600
H1351       H  0.87558505  0.31140886  0.57061079     0.43400
H1352       H  0.80504860  0.35184127  0.69667883     0.43400
C1353       C  0.66703093  0.52060988  0.61364126    -0.05700
C1354       C  0.63171486  0.52483272  0.61578781    -0.33100
C1355       C  0.61701046  0.55700380  0.61470793     0.36100
C1356       C  0.63751675  0.58588338  0.61131388    -0.06100
C1357       C  0.67228993  0.58155806  0.60587941    -0.33000
C1358       C  0.68716097  0.54934666  0.60725429     0.36000
H1359       H  0.61541013  0.50327302  0.61994127     0.16400
O1360       O  0.58272116  0.56002692  0.61872023    -0.60500
H1361       H  0.68851773  0.60343736  0.60302844     0.16400
O1362       O  0.72157790  0.54666263  0.60403239    -0.60600
H1363       H  0.73100869  0.55228014  0.62454707     0.43400
H1364       H  0.57336420  0.56285174  0.59771844     0.43400
C1365       C  0.59763165  0.36469821  0.61791167    -0.05700
C1366       C  0.59211207  0.33256594  0.60486700    -0.33100
C1367       C  0.55960262  0.31801875  0.60443654     0.36100
C1368       C  0.53178768  0.33579182  0.61687631    -0.06100
C1369       C  0.53707764  0.36909174  0.62735205    -0.33000
C1370       C  0.56936054  0.38345575  0.62796268     0.36000
H1371       H  0.61329573  0.31781420  0.59650676     0.16400
O1372       O  0.55553124  0.28624331  0.59233716    -0.60500
H1373       H  0.51631936  0.38379107  0.63662693     0.16400
O1374       O  0.57304386  0.41541404  0.63980773    -0.60600
H1375       H  0.57245246  0.43073124  0.62174644     0.43400
H1376       H  0.56273159  0.27047701  0.60884193     0.43400
C1377       C  0.81537063  0.35684527  0.35873153    -0.05700
C1378       C  0.83888289  0.35605020  0.38296459    -0.33100
C1379       C  0.86401939  0.33085568  0.38395639     0.36100
C1380       C  0.86581458  0.30648563  0.36035436    -0.06100
C1381       C  0.84460548  0.30979548  0.33464860    -0.33000
C1382       C  0.81966888  0.33476380  0.33366372     0.36000
H1383       H  0.83582089  0.37284483  0.40245534     0.16400
O1384       O  0.88440736  0.32832573  0.40937100    -0.60500
H1385       H  0.84581237  0.29139828  0.31619555     0.16400
O1386       O  0.79770792  0.33555552  0.30924288    -0.60600
H1387       H  0.80685353  0.35310160  0.29521092     0.43400
H1388       H  0.87201662  0.31336573  0.42383759     0.43400
C1389       C  0.66541282  0.52368436  0.37553218    -0.05700
C1390       C  0.62999917  0.52768969  0.37529512    -0.33100
C1391       C  0.61522382  0.55988033  0.37566906     0.36100
C1392       C  0.63577453  0.58895503  0.37641253    -0.06100
C1393       C  0.67091542  0.58505760  0.37946254    -0.33000
C1394       C  0.68581060  0.55284120  0.37895351     0.36000
H1395       H  0.61359754  0.50583621  0.37331709     0.16400
O1396       O  0.58069436  0.56264998  0.37379066    -0.60500
H1397       H  0.68716021  0.60714116  0.37995839     0.16400
O1398       O  0.72042169  0.55053715  0.37904692    -0.60600
H1399       H  0.72689904  0.55045287  0.40107623     0.43400
H1400       H  0.57293555  0.56590851  0.39528095     0.43400
C1401       C  0.59662308  0.36560864  0.37526612    -0.05700
C1402       C  0.56871171  0.38631963  0.36877778    -0.33100
C1403       C  0.53591232  0.37297976  0.36747104     0.36100
C1404       C  0.53033727  0.33801766  0.37247495    -0.06100
C1405       C  0.55793424  0.31797242  0.38179589    -0.33000
C1406       C  0.59080007  0.33144818  0.38318311     0.36000
H1407       H  0.57247714  0.41280469  0.36328624     0.16400
O1408       O  0.50964146  0.39434420  0.36050949    -0.60500
H1409       H  0.55449392  0.29121866  0.38621390     0.16400
O1410       O  0.61724151  0.31035246  0.39021793    -0.60600
H1411       H  0.62454323  0.30057894  0.37026950     0.43400
H1412       H  0.51098884  0.39795311  0.33797132     0.43400
C1413       C  0.72596563  0.40553906  0.46319191    -0.05700
C1414       C  0.72441759  0.37444574  0.47885046    -0.33100
C1415       C  0.72467378  0.37310085  0.51094552     0.36100
C1416       C  0.72646137  0.40327445  0.52821158    -0.06100
C1417       C  0.72753082  0.43438190  0.51256346    -0.33000
C1418       C  0.72701984  0.43573447  0.48048058     0.36000
H1419       H  0.72335101  0.35084936  0.46622020     0.16400
O1420       O  0.72324538  0.34207384  0.52504069    -0.60500
H1421       H  0.72841740  0.45797934  0.52520904     0.16400
O1422       O  0.72741724  0.46680669  0.46641959    -0.60600
H1423       H  0.70327028  0.47301033  0.46378795     0.43400
H1424       H  0.74709439  0.33443662  0.52654409     0.43400
C1425       C  0.19014939  0.35760819  0.85777253    -0.05700
C1426       C  0.16872632  0.35486947  0.88346876    -0.33100
C1427       C  0.14344732  0.32978243  0.88454576     0.36100
C1428       C  0.13961531  0.30712044  0.85976884    -0.06100
C1429       C  0.15871283  0.31224360  0.83298265    -0.33000
C1430       C  0.18358079  0.33739033  0.83176517     0.36000
H1431       H  0.17365855  0.36993003  0.90379258     0.16400
O1432       O  0.12566402  0.32496143  0.91127080    -0.60500
H1433       H  0.15605261  0.29502550  0.81373550     0.16400
O1434       O  0.20348170  0.33995016  0.80601599    -0.60600
H1435       H  0.19352570  0.35875479  0.79390999     0.43400
H1436       H  0.10404143  0.33722118  0.90820923     0.43400
C1437       C  0.25765521  0.47502601  0.77212243    -0.05700
C1438       C  0.25706503  0.45506676  0.74541774    -0.33100
C1439       C  0.25678803  0.47022803  0.71626190     0.36100
C1440       C  0.25685155  0.50568130  0.71374102    -0.06100
C1441       C  0.25380040  0.52538922  0.74040507    -0.33000
C1442       C  0.25443205  0.51030549  0.76955341     0.36000
H1443       H  0.25992175  0.42786602  0.74714335     0.16400
O1444       O  0.25926741  0.45037793  0.69047606    -0.60500
H1445       H  0.25407861  0.55266207  0.73864509     0.16400
O1446       O  0.25622928  0.53041551  0.79519400    -0.60600
H1447       H  0.23256820  0.53253339  0.80249893     0.43400
H1448       H  0.28380790  0.44609590  0.68772415     0.43400
C1449       C  0.31941459  0.33521929  0.77015201    -0.05700
C1450       C  0.30723134  0.34855270  0.74233640    -0.33100
C1451       C  0.32010209  0.33722712  0.71427717     0.36100
C1452       C  0.34541524  0.31227056  0.71404896    -0.06100
C1453       C  0.35462875  0.29622970  0.74160849    -0.33000
C1454       C  0.34146354  0.30732731  0.76965867     0.36000
H1455       H  0.29017503  0.37001670  0.74249159     0.16400
O1456       O  0.31073009  0.35339151  0.68765764    -0.60500
H1457       H  0.37417877  0.27699988  0.74159562     0.16400
O1458       O  0.35403808  0.29406437  0.79646454    -0.60600
H1459       H  0.33853959  0.27521322  0.80175411     0.43400
H1460       H  0.32599851  0.37322805  0.68595663     0.43400
C1461       C  0.18890499  0.35947777  0.13265705    -0.05700
C1462       C  0.16595937  0.35621460  0.10822347    -0.33100
C1463       C  0.14092778  0.33103290  0.10897187     0.36100
C1464       C  0.13881114  0.30907469  0.13439622    -0.06100
C1465       C  0.15961008  0.31458619  0.15997943    -0.33000
C1466       C  0.18462264  0.33955323  0.15920521     0.36000
H1467       H  0.16950386  0.37088675  0.08741092     0.16400
O1468       O  0.12167423  0.32530288  0.08326828    -0.60500
H1469       H  0.15836943  0.29761838  0.17954657     0.16400
O1470       O  0.20639630  0.34278666  0.18362029    -0.60600
H1471       H  0.22342779  0.32459501  0.18092807     0.43400
H1472       H  0.10014187  0.33745021  0.08707714     0.43400
C1473       C  0.28302346  0.40301899  0.96089954    -0.05700
C1474       C  0.27988994  0.43372839  0.97701710    -0.33100
C1475       C  0.27978179  0.43457633  0.00921317     0.36100
C1476       C  0.28237613  0.40424587  0.02624478    -0.06100
C1477       C  0.28607978  0.37361892  0.01016281    -0.33000
C1478       C  0.28658300  0.37278778  0.97798376     0.36000
H1479       H  0.27759048  0.45742846  0.96467173     0.16400
O1480       O  0.27712404  0.46531052  0.02365267    -0.60500
H1481       H  0.28829130  0.34992941  0.02254090     0.16400
O1482       O  0.28978285  0.34205267  0.96363930    -0.60600
H1483       H  0.31447252  0.33769618  0.96274887     0.43400
H1484       H  0.30073508  0.47340172  0.02607878     0.43400
C1485       C  0.25804292  0.47798489  0.21636156    -0.05700
C1486       C  0.25778075  0.45917567  0.24377808    -0.33100
C1487       C  0.25785967  0.47548295  0.27240164     0.36100
C1488       C  0.25826898  0.51102173  0.27376743    -0.06100
C1489       C  0.25557461  0.52975641  0.24644020    -0.33000
C1490       C  0.25532374  0.51342671  0.21779753     0.36000
H1491       H  0.26034696  0.43189798  0.24297347     0.16400
O1492       O  0.26048980  0.45659924  0.29879033    -0.60500
H1493       H  0.25650757  0.55714578  0.24720524     0.16400
O1494       O  0.25573254  0.53241214  0.19137427    -0.60600
H1495       H  0.27996306  0.53710929  0.18723640     0.43400
H1496       H  0.28507731  0.45268316  0.30168817     0.43400
C1497       C  0.31504485  0.33555252  0.21717334    -0.05700
C1498       C  0.30460406  0.35120115  0.24458500    -0.33100
C1499       C  0.31699213  0.34012005  0.27291656     0.36100
C1500       C  0.33996963  0.31306137  0.27385244    -0.06100
C1501       C  0.34675890  0.29467788  0.24695956    -0.33000
C1502       C  0.33403643  0.30554700  0.21859308     0.36000
H1503       H  0.28967969  0.37417954  0.24375835     0.16400
O1504       O  0.30964086  0.35823637  0.29900785    -0.60500
H1505       H  0.36408245  0.27353179  0.24763520     0.16400
O1506       O  0.34427292  0.28957071  0.19219660    -0.60600
H1507       H  0.32752445  0.27124350  0.18894151     0.43400
H1508       H  0.32656342  0.37677603  0.29964684     0.43400
C1509       C  0.64120214  0.18037731  0.85915069    -0.05700
C1510       C  0.66254384  0.17557528  0.83376370    -0.33100
C1511       C  0.68749707  0.15056025  0.83418806     0.36100
C1512       C  0.69119045  0.12959565  0.86011867    -0.06100
C1513       C  0.66791114  0.13227911  0.88440263    -0.33000
C1514       C  0.64290479  0.15759327  0.88403944     0.36000
H1515       H  0.66154633  0.19296655  0.81449890     0.16400
O1516       O  0.70969511  0.14816604  0.80999381    -0.60500
H1517       H  0.67105364  0.11688384  0.90483032     0.16400
O1518       O  0.62327386  0.16255218  0.90965554    -0.60600
H1519       H  0.60443255  0.14613003  0.90770225     0.43400
H1520       H  0.72674458  0.16617778  0.81350192     0.43400
C1521       C  0.66467943  0.31105304  0.77410073    -0.05700
C1522       C  0.65563903  0.29585322  0.74619726    -0.33100
C1523       C  0.66776776  0.30863845  0.71838725     0.36100
C1524       C  0.68895842  0.33721577  0.71857092    -0.06100
C1525       C  0.70146323  0.34952685  0.74665324    -0.33000
C1526       C  0.68970232  0.33629805  0.77445443     0.36000
H1527       H  0.63703453  0.27587497  0.74584866     0.16400
O1528       O  0.65495244  0.29619151  0.69134998    -0.60500
H1529       H  0.71814148  0.37129766  0.74703994     0.16400
O1530       O  0.69917942  0.35141167  0.80150228    -0.60600
H1531       H  0.71774274  0.33710459  0.80964505     0.43400
H1532       H  0.66949771  0.27657144  0.68618108     0.43400
C1533       C  0.52325980  0.24592458  0.77107545    -0.05700
C1534       C  0.48904236  0.23669190  0.76898693    -0.33100
C1535       C  0.47243413  0.23724816  0.74035605     0.36100
C1536       C  0.49021370  0.24720000  0.71375033    -0.06100
C1537       C  0.52502544  0.25306119  0.71555335    -0.33000
C1538       C  0.54153830  0.25230396  0.74388705     0.36000
H1539       H  0.47447285  0.23234652  0.78972701     0.16400
O1540       O  0.43819348  0.23187528  0.73913972    -0.60500
H1541       H  0.53887199  0.26120552  0.69532645     0.16400
O1542       O  0.57485469  0.26162809  0.74522239    -0.60600
H1543       H  0.58752242  0.24001578  0.74663743     0.43400
H1544       H  0.43552486  0.20695175  0.73815256     0.43400
C1545       C  0.40918665  0.35861397  0.87233468    -0.05700
C1546       C  0.43715863  0.38023882  0.86968911    -0.33100
C1547       C  0.47016247  0.36748431  0.86974536     0.36100
C1548       C  0.47584972  0.33222591  0.87190068    -0.06100
C1549       C  0.44784945  0.31085627  0.87683470    -0.33000
C1550       C  0.41476591  0.32375158  0.87695619     0.36000
H1551       H  0.43336874  0.40715315  0.86636612     0.16400
O1552       O  0.49648715  0.38971289  0.86598900    -0.60500
H1553       H  0.45132298  0.28374694  0.87870176     0.16400
O1554       O  0.38806679  0.30172272  0.87936658    -0.60600
H1555       H  0.38391425  0.29353920  0.85812421     0.43400
H1556       H  0.50303775  0.39647990  0.88712288     0.43400
C1557       C  0.69426119  0.13496092  0.13603689    -0.05700
C1558       C  0.66878973  0.13344644  0.11351610    -0.33100
C1559       C  0.64319606  0.15819876  0.11253553     0.36100
C1560       C  0.64319054  0.18466397  0.13424271    -0.06100
C1561       C  0.66637485  0.18367490  0.15864560    -0.33000
C1562       C  0.69181974  0.15925829  0.15958874     0.36000
H1563       H  0.67039363  0.11494940  0.09519275     0.16400
O1564       O  0.62090324  0.15849844  0.08839668    -0.60500
H1565       H  0.66628806  0.20345676  0.17591456     0.16400
O1566       O  0.71527189  0.16026267  0.18286475    -0.60600
H1567       H  0.73066789  0.17925556  0.17765036     0.43400
H1568       H  0.60260206  0.14267789  0.09446299     0.43400
C1569       C  0.47593977  0.33426504  0.11320399    -0.05700
C1570       C  0.44796806  0.31342712  0.10678787    -0.33100
C1571       C  0.41490352  0.32648436  0.10702794     0.36100
C1572       C  0.40924866  0.36098548  0.11389448    -0.06100
C1573       C  0.43734117  0.38229174  0.11751644    -0.33000
C1574       C  0.47029822  0.36944649  0.11679644     0.36000
H1575       H  0.45142841  0.28649913  0.10340217     0.16400
O1576       O  0.38830151  0.30477322  0.10245886    -0.60500
H1577       H  0.43374529  0.40898841  0.12215467     0.16400
O1578       O  0.49660869  0.39146803  0.12151922    -0.60600
H1579       H  0.50488696  0.39733793  0.10065590     0.43400
H1580       H  0.38295925  0.29546193  0.12309338     0.43400
C1581       C  0.59450722  0.27349210  0.02724080    -0.05700
C1582       C  0.56536957  0.26246346  0.01156746    -0.33100
C1583       C  0.56417065  0.26142804  0.97945422     0.36100
C1584       C  0.59247383  0.27164885  0.96200197    -0.06100
C1585       C  0.62151150  0.28306325  0.97765113    -0.33000
C1586       C  0.62264817  0.28424414  0.00980161     0.36000
H1587       H  0.54320294  0.25428402  0.02420014     0.16400
O1588       O  0.53500979  0.25053854  0.96553246    -0.60500
H1589       H  0.64360055  0.29137397  0.96497024     0.16400
O1590       O  0.65152916  0.29582441  0.02375246    -0.60600
H1591       H  0.64846406  0.32066465  0.02547315     0.43400
H1592       H  0.53676652  0.22550567  0.96510460     0.43400
C1593       C  0.65661598  0.31197723  0.21967486    -0.05700
C1594       C  0.68596075  0.33191115  0.21923657    -0.33100
C1595       C  0.69921970  0.34469602  0.24666351     0.36100
C1596       C  0.68346064  0.33695199  0.27480758    -0.06100
C1597       C  0.65716912  0.31326935  0.27557680    -0.33000
C1598       C  0.64332000  0.30113261  0.24815436     0.36000
H1599       H  0.69658530  0.34035752  0.19757541     0.16400
O1600       O  0.72564785  0.36711140  0.24553890    -0.60500
H1601       H  0.64500682  0.30696053  0.29718912     0.16400
O1602       O  0.61556472  0.28030988  0.24931243    -0.60600
H1603       H  0.59625961  0.29517529  0.25478057     0.43400
H1604       H  0.74587127  0.35376804  0.25145553     0.43400
C1605       C  0.48224758  0.24870356  0.26914601    -0.05700
C1606       C  0.51569043  0.23700764  0.26705892    -0.33100
C1607       C  0.53185983  0.23549157  0.23828855     0.36100
C1608       C  0.51450387  0.24613891  0.21171252    -0.06100
C1609       C  0.48002271  0.25367273  0.21354882    -0.33000
C1610       C  0.46381420  0.25470239  0.24199027     0.36000
H1611       H  0.53018848  0.23229543  0.28776188     0.16400
O1612       O  0.56556084  0.22751536  0.23682886    -0.60500
H1613       H  0.46644079  0.26197529  0.19324176     0.16400
O1614       O  0.43079619  0.26514300  0.24333134    -0.60600
H1615       H  0.41738544  0.24395439  0.24365042     0.43400
H1616       H  0.56621913  0.20268923  0.23363894     0.43400
C1617       C  0.81809574  0.62935925  0.85625142    -0.05700
C1618       C  0.82108289  0.65274280  0.83209459    -0.33100
C1619       C  0.84548971  0.67830179  0.83299456     0.36100
C1620       C  0.86762062  0.68078257  0.85827555    -0.06100
C1621       C  0.86736092  0.65509584  0.88063829    -0.33000
C1622       C  0.84263714  0.62942621  0.87977373     0.36000
H1623       H  0.80271456  0.65279696  0.81358246     0.16400
O1624       O  0.84645358  0.70192405  0.80983041    -0.60500
H1625       H  0.88420388  0.65666570  0.90023093     0.16400
O1626       O  0.84073221  0.60660874  0.90348302    -0.60600
H1627       H  0.82575151  0.61727423  0.91899499     0.43400
H1628       H  0.82723013  0.71744606  0.81390052     0.43400
C1629       C  0.69200079  0.64823925  0.76986598    -0.05700
C1630       C  0.70308075  0.63318490  0.74234870    -0.33100
C1631       C  0.69177416  0.64507081  0.71393740     0.36100
C1632       C  0.66958958  0.67273180  0.71292993    -0.06100
C1633       C  0.66232113  0.69061910  0.73999188    -0.33000
C1634       C  0.67341291  0.67854094  0.76852311     0.36000
H1635       H  0.71791682  0.61023145  0.74298857     0.16400
O1636       O  0.69939196  0.62724788  0.68773213    -0.60500
H1637       H  0.64556676  0.71222818  0.73923372     0.16400
O1638       O  0.66295397  0.69444638  0.79489878    -0.60600
H1639       H  0.64016039  0.68510656  0.79932396     0.43400
H1640       H  0.68205747  0.60912873  0.68643536     0.43400
C1641       C  0.75424889  0.48029383  0.71395031    -0.05700
C1642       C  0.76291028  0.46166502  0.74031679    -0.33100
C1643       C  0.76228794  0.47701125  0.76942765     0.36100
C1644       C  0.75257423  0.51109397  0.77208733    -0.06100
C1645       C  0.74747663  0.53035792  0.74543713    -0.33000
C1646       C  0.74811495  0.51517306  0.71646873     0.36000
H1647       H  0.76685823  0.43459124  0.73868549     0.16400
O1648       O  0.76702614  0.45760191  0.79520233    -0.60500
H1649       H  0.73990545  0.55655177  0.74730973     0.16400
O1650       O  0.73949169  0.53385507  0.69102315    -0.60600
H1651       H  0.71439559  0.53370080  0.69041600     0.43400
H1652       H  0.79154741  0.45932284  0.79976548     0.43400
C1653       C  0.66315391  0.46556975  0.87241166    -0.05700
C1654       C  0.68307918  0.43757466  0.88086017    -0.33100
C1655       C  0.66941502  0.40477431  0.88154463     0.36100
C1656       C  0.63525987  0.39933884  0.87346341    -0.06100
C1657       C  0.61480294  0.42743662  0.86711423    -0.33000
C1658       C  0.62826688  0.46017250  0.86656251     0.36000
H1659       H  0.70981434  0.44077318  0.88546686     0.16400
O1660       O  0.69050146  0.37799916  0.88740505    -0.60500
H1661       H  0.58839991  0.42390891  0.86119898     0.16400
O1662       O  0.60711355  0.48647942  0.85917690    -0.60600
H1663       H  0.60515254  0.48595374  0.83644217     0.43400
H1664       H  0.68960209  0.37481342  0.91002055     0.43400
C1665       C  0.81583039  0.63172877  0.13571711    -0.05700
C1666       C  0.81790869  0.65381750  0.16088201    -0.33100
C1667       C  0.84260522  0.67906407  0.16185958     0.36100
C1668       C  0.86573467  0.68249435  0.13743441    -0.06100
C1669       C  0.86625314  0.65792686  0.11409298    -0.33000
C1670       C  0.84143575  0.63245078  0.11318647     0.36000
H1671       H  0.79870414  0.65316021  0.17868458     0.16400
O1672       O  0.84286001  0.70153503  0.18593592    -0.60500
H1673       H  0.88382430  0.66034689  0.09508748     0.16400
O1674       O  0.83997967  0.61123293  0.08829375    -0.60600
H1675       H  0.85253561  0.59066841  0.09467561     0.43400
H1676       H  0.82399231  0.71746034  0.18184124     0.43400
C1677       C  0.66264178  0.46789304  0.11722706    -0.05700
C1678       C  0.62840988  0.46329176  0.12528660    -0.33100
C1679       C  0.61370108  0.43116977  0.12574753     0.36100
C1680       C  0.63299359  0.40252707  0.11780764    -0.06100
C1681       C  0.66628969  0.40725193  0.10717080    -0.33000
C1682       C  0.68116604  0.43953150  0.10686762     0.36000
H1683       H  0.61315095  0.48448588  0.13283037     0.16400
O1684       O  0.58080104  0.42800501  0.13539276    -0.60500
H1685       H  0.68157420  0.38562254  0.10076260     0.16400
O1686       O  0.71437089  0.44255653  0.09816746    -0.60600
H1687       H  0.71366635  0.44779030  0.07586341     0.43400
H1688       H  0.56716552  0.42733083  0.11627081     0.43400
C1689       C  0.73004136  0.58203391  0.96148112    -0.05700
C1690       C  0.71676441  0.60993370  0.97743150    -0.33100
C1691       C  0.71632708  0.61087077  0.00961184     0.36100
C1692       C  0.72963494  0.58361678  0.02690172    -0.06100
C1693       C  0.74332682  0.55586099  0.01095856    -0.33000
C1694       C  0.74380520  0.55496651  0.97871463     0.36000
H1695       H  0.70607544  0.63110862  0.96494625     0.16400
O1696       O  0.70247644  0.63860255  0.02377960    -0.60500
H1697       H  0.75393054  0.53467973  0.02349569     0.16400
O1698       O  0.75783991  0.52739903  0.96443199    -0.60600
H1699       H  0.78200544  0.53333093  0.96140422     0.43400
H1700       H  0.67805467  0.63330337  0.02594667     0.43400
C1701       C  0.68214191  0.65588933  0.21395559    -0.05700
C1702       C  0.69928711  0.64877408  0.24142197    -0.33100
C1703       C  0.68606926  0.65929170  0.26963659     0.36100
C1704       C  0.65499305  0.67662820  0.27038166    -0.06100
C1705       C  0.63995949  0.68701945  0.24266173    -0.33000
C1706       C  0.65346269  0.67684937  0.21445442     0.36000
H1707       H  0.72139759  0.63263178  0.24114688     0.16400
O1708       O  0.70134833  0.64872459  0.29627363    -0.60500
H1709       H  0.61629996  0.70088476  0.24292367     0.16400
O1710       O  0.63646387  0.68442781  0.18780196    -0.60600
H1711       H  0.61928499  0.66630383  0.18541185     0.43400
H1712       H  0.71838503  0.66637412  0.30099141     0.43400
C1713       C  0.74956988  0.51462683  0.21859482    -0.05700
C1714       C  0.75847893  0.48033337  0.22047599    -0.33100
C1715       C  0.75937960  0.46392534  0.24913650     0.36100
C1716       C  0.75128540  0.48191863  0.27609875    -0.06100
C1717       C  0.74585805  0.51686627  0.27439123    -0.33000
C1718       C  0.74503599  0.53324118  0.24589670     0.36000
H1719       H  0.76154912  0.46559539  0.19965658     0.16400
O1720       O  0.76433516  0.42962915  0.25020911    -0.60500
H1721       H  0.73907410  0.53089754  0.29490829     0.16400
O1722       O  0.73625951  0.56676230  0.24472769    -0.60600
H1723       H  0.75802177  0.57921579  0.24535271     0.43400
H1724       H  0.78868086  0.42671283  0.25481951     0.43400
C1725       C  0.31590190  0.85439051  0.85827721    -0.05700
C1726       C  0.34122532  0.85411828  0.88096804    -0.33100
C1727       C  0.36644808  0.82889658  0.88088137     0.36100
C1728       C  0.36654811  0.80389497  0.85772438    -0.06100
C1729       C  0.34301748  0.80629300  0.83365318    -0.33000
C1730       C  0.31796398  0.83119379  0.83378117     0.36000
H1731       H  0.33974320  0.87152913  0.90015820     0.16400
O1732       O  0.38882956  0.82712318  0.90491994    -0.60500
H1733       H  0.34267995  0.78732546  0.81565090     0.16400
O1734       O  0.29380035  0.83089344  0.81113032    -0.60600
H1735       H  0.30137545  0.84801934  0.79594738     0.43400
H1736       H  0.37775670  0.81240269  0.92044201     0.43400
C1737       C  0.49524037  0.74187933  0.77587566    -0.05700
C1738       C  0.52997940  0.73516439  0.77450289    -0.33100
C1739       C  0.54653956  0.73344651  0.74615619     0.36100
C1740       C  0.52831073  0.73836302  0.71871774    -0.06100
C1741       C  0.49453020  0.74897678  0.72023351    -0.33000
C1742       C  0.47789300  0.75058136  0.74872740     0.36000
H1743       H  0.54353722  0.72794261  0.79515455     0.16400
O1744       O  0.57977815  0.72366492  0.74530465    -0.60500
H1745       H  0.48013993  0.75258246  0.69927921     0.16400
O1746       O  0.44385017  0.75685668  0.74947012    -0.60600
H1747       H  0.43328109  0.73420494  0.74782905     0.43400
H1748       H  0.59270884  0.74497375  0.74259923     0.43400
C1749       C  0.32244663  0.64551714  0.71924362    -0.05700
C1750       C  0.34085123  0.67580096  0.71808056    -0.33100
C1751       C  0.35362954  0.68991536  0.74509964     0.36100
C1752       C  0.34789064  0.67367807  0.77339439    -0.06100
C1753       C  0.32558739  0.64627232  0.77490929    -0.33000
C1754       C  0.31288777  0.63208113  0.74798353     0.36000
H1755       H  0.34795959  0.68678283  0.69616571     0.16400
O1756       O  0.37369219  0.71807290  0.74340286    -0.60500
H1757       H  0.32069972  0.63376885  0.79666447     0.16400
O1758       O  0.29352222  0.60341997  0.74989098    -0.60600
H1759       H  0.26981571  0.61158535  0.74916318     0.43400
H1760       H  0.35871314  0.73723091  0.74898827     0.43400
C1761       C  0.53331014  0.65206324  0.87279011    -0.05700
C1762       C  0.56120961  0.67199488  0.88156841    -0.33100
C1763       C  0.59408893  0.65843119  0.88208980     0.36100
C1764       C  0.59966414  0.62454766  0.87316816    -0.06100
C1765       C  0.57160596  0.60401819  0.86683252    -0.33000
C1766       C  0.53879807  0.61720133  0.86700866     0.36000
H1767       H  0.55788830  0.69864688  0.88650365     0.16400
O1768       O  0.62077823  0.67937642  0.88865634    -0.60500
H1769       H  0.57520080  0.57773472  0.86052405     0.16400
O1770       O  0.51260317  0.59596547  0.85957108    -0.60600
H1771       H  0.50365956  0.58779678  0.87954989     0.43400
H1772       H  0.62342940  0.67818835  0.91131215     0.43400
C1773       C  0.37614303  0.58575903  0.87053281    -0.05700
C1774       C  0.39550513  0.55794137  0.86101684    -0.33100
C1775       C  0.38208857  0.52516203  0.86100321     0.36100
C1776       C  0.34805487  0.51938688  0.86997696    -0.06100
C1777       C  0.32927610  0.54703627  0.88114490    -0.33000
C1778       C  0.34312287  0.57984927  0.88176362     0.36000
H1779       H  0.42103093  0.56172174  0.85256949     0.16400
O1780       O  0.40208529  0.49937935  0.85026153    -0.60500
H1781       H  0.30326879  0.54353921  0.88832781     0.16400
O1782       O  0.32311840  0.60627631  0.89104553    -0.60600
H1783       H  0.32558168  0.60707825  0.91372883     0.43400
H1784       H  0.41378757  0.49034064  0.86867769     0.43400
C1785       C  0.36594770  0.80380229  0.13437082    -0.05700
C1786       C  0.36667769  0.82991778  0.11243456    -0.33100
C1787       C  0.34123994  0.85484757  0.11218773     0.36100
C1788       C  0.31489102  0.85350085  0.13404893    -0.06100
C1789       C  0.31651114  0.82954690  0.15777453    -0.33000
C1790       C  0.34158012  0.80475951  0.15796736     0.36000
H1791       H  0.38503581  0.82924554  0.09393265     0.16400
O1792       O  0.34021649  0.87779063  0.08854804    -0.60500
H1793       H  0.29677531  0.82853114  0.17507434     0.16400
O1794       O  0.34094705  0.78021826  0.18033599    -0.60600
H1795       H  0.32238408  0.76463580  0.17442371     0.43400
H1796       H  0.35364750  0.89738032  0.09585678     0.43400
C1797       C  0.53174686  0.65285256  0.11439940    -0.05700
C1798       C  0.55956903  0.67376179  0.10744927    -0.33100
C1799       C  0.59254696  0.66059237  0.10633477     0.36100
C1800       C  0.59824013  0.62601909  0.11248167    -0.06100
C1801       C  0.57032910  0.60468958  0.11683169    -0.33000
C1802       C  0.53740892  0.61764831  0.11766300     0.36000
H1803       H  0.55611879  0.70078008  0.10468927     0.16400
O1804       O  0.61919632  0.68237259  0.10232551    -0.60500
H1805       H  0.57415574  0.57794201  0.12110151     0.16400
O1806       O  0.51111037  0.59564365  0.12267531    -0.60600
H1807       H  0.51147565  0.59082267  0.14505803     0.43400
H1808       H  0.62292845  0.68321735  0.07978374     0.43400
C1809       C  0.37392272  0.58555691  0.11153180    -0.05700
C1810       C  0.33953609  0.58129132  0.10428295    -0.33100
C1811       C  0.32454055  0.54913176  0.10482800     0.36100
C1812       C  0.34405975  0.52044686  0.11268119    -0.06100
C1813       C  0.37917037  0.52452052  0.11665340    -0.33000
C1814       C  0.39404007  0.55664636  0.11634091     0.36000
H1815       H  0.32358062  0.60317650  0.10043425     0.16400
O1816       O  0.29031935  0.54661420  0.10021732    -0.60500
H1817       H  0.39506496  0.50291031  0.12175826     0.16400
O1818       O  0.42816740  0.55959479  0.12149733    -0.60600
H1819       H  0.43113779  0.55632921  0.14396591     0.43400
H1820       H  0.28757739  0.54392623  0.07767877     0.43400
C1821       C  0.41704768  0.71674163  0.02697680    -0.05700
C1822       C  0.38768869  0.70778802  0.01068132    -0.33100
C1823       C  0.38720707  0.70733706  0.97860717     0.36100
C1824       C  0.41659796  0.71585215  0.96180450    -0.06100
C1825       C  0.44600307  0.72486047  0.97805347    -0.33000
C1826       C  0.44648429  0.72523315  0.01022548     0.36000
H1827       H  0.36471219  0.70097063  0.02277908     0.16400
O1828       O  0.35788024  0.69788271  0.96410320    -0.60500
H1829       H  0.46893942  0.73157560  0.96584496     0.16400
O1830       O  0.47588405  0.73414984  0.02487598    -0.60600
H1831       H  0.48886737  0.71279304  0.02695903     0.43400
H1832       H  0.34431535  0.71892150  0.96242019     0.43400
C1833       C  0.48266832  0.73654265  0.21921323    -0.05700
C1834       C  0.46405256  0.72803509  0.24557776    -0.33100
C1835       C  0.47916845  0.72835445  0.27451280     0.36100
C1836       C  0.51334421  0.73748696  0.27743613    -0.06100
C1837       C  0.53113562  0.74928458  0.25159292    -0.33000
C1838       C  0.51593990  0.74872802  0.22237126     0.36000
H1839       H  0.43855975  0.71821314  0.24337073     0.16400
O1840       O  0.46154654  0.71591995  0.29925836    -0.60500
H1841       H  0.55769889  0.75571434  0.25356431     0.16400
O1842       O  0.53475823  0.75682869  0.19689464    -0.60600
H1843       H  0.54745099  0.73594791  0.19168631     0.43400
H1844       H  0.45339659  0.73617799  0.31048838     0.43400
C1845       C  0.34325853  0.67465032  0.21437688    -0.05700
C1846       C  0.35308646  0.69128859  0.24146967    -0.33100
C1847       C  0.34030585  0.68103350  0.27000222     0.36100
C1848       C  0.31824407  0.65318736  0.27151663    -0.06100
C1849       C  0.30559734  0.63913826  0.24413936    -0.33000
C1850       C  0.31772028  0.64997950  0.21557615     0.36000
H1851       H  0.37278813  0.71034166  0.24071985     0.16400
O1852       O  0.35326771  0.69506738  0.29631631    -0.60500
H1853       H  0.28866006  0.61758597  0.24503447     0.16400
O1854       O  0.30811658  0.63298163  0.18950498    -0.60600
H1855       H  0.28757387  0.64490075  0.18215868     0.43400
H1856       H  0.33659181  0.71251688  0.30250942     0.43400
loop_ 
_geom_bond_atom_site_label_1 
_geom_bond_atom_site_label_2 
_geom_bond_distance 
_geom_bond_site_symmetry_2 
_ccdc_geom_bond_type 
Fe1          O17   2.081       .  S
Fe1           O7   2.033       .  S
Fe1          O14   2.061       .  S
Fe1           O6   2.064       .  S
Fe1          O12   1.970       .  S
Fe2           O5   2.048       .  S
Fe2           O9   2.046       .  S
Fe2          O13   2.063       .  S
Fe2          O18   2.046       .  S
Fe2          O12   1.953       .  S
Fe3          O21   2.075       .  S
Fe3           O8   2.099       .  S
Fe3          O15   2.094       .  S
Fe3           O4   2.061       .  S
Fe3          O12   1.984       .  S
O4           C11   1.271       .  A
O5           C19   1.266       .  A
O6           C11   1.273       .  A
O7           C10   1.263       .  A
O8           C20   1.276       .  A
O9           C22   1.267       .  A
C10          O15   1.271       .  A
C10        C1785   1.474       .  S
C11        C1821   1.485       .  S
O13          C16   1.267       .  A
O14          C16   1.265       .  A
C16        C1809   1.482       .  S
O17          C22   1.271       .  A
O18          C20   1.267       .  A
C19          O21   1.268       .  A
C19        C1833   1.469       .  S
C20        C1797   1.493       .  S
C22        C1845   1.467       .  S
Fe23         O39   2.067       .  S
Fe23         O29   2.065       .  S
Fe23         O36   2.073       .  S
Fe23         O28   2.044       .  S
Fe23         O34   1.955       .  S
Fe24         O27   2.043       .  S
Fe24         O31   2.081       .  S
Fe24         O35   2.048       .  S
Fe24         O40   2.062       .  S
Fe24         O34   1.940       .  S
Fe25         O43   2.114       .  S
Fe25         O30   2.075       .  S
Fe25         O37   2.058       .  S
Fe25         O26   2.107       .  S
Fe25         O34   1.965       .  S
O26          C33   1.276       .  A
O27          C41   1.269       .  A
O28          C33   1.267       .  A
O29          C32   1.271       .  A
O30          C42   1.268       .  A
O31          C44   1.271       .  A
C32          O37   1.271       .  A
C32        C1824   1.485       .  S
C33        C1728   1.482       .  S
O35          C38   1.268       .  A
O36          C38   1.270       .  A
C38        C1752   1.460       .  S
O39          C44   1.268       .  A
O40          C42   1.266       .  A
C41          O43   1.281       .  A
C41        C1761   1.495       .  S
C42        C1737   1.469       .  S
C44        C1773   1.490       .  S
Fe45         O61   2.081       .  S
Fe45         O51   2.042       .  S
Fe45         O58   2.064       .  S
Fe45         O50   2.074       .  S
Fe45         O56   1.965       .  S
Fe46         O49   2.059       .  S
Fe46         O53   2.037       .  S
Fe46         O57   2.070       .  S
Fe46         O62   2.041       .  S
Fe46         O56   1.946       .  S
Fe47         O65   2.080       .  S
Fe47         O52   2.102       .  S
Fe47         O59   2.095       .  S
Fe47         O48   2.072       .  S
Fe47         O56   1.974       .  S
O48          C55   1.274       .  A
O49          C63   1.267       .  A
O50          C55   1.272       .  A
O51          C54   1.266       .  A
O52          C64   1.277       .  A
O53          C66   1.264       .  A
C54          O59   1.273       .  A
C54        C1665   1.475       .  S
C55        C1692   1.492       .  S
O57          C60   1.270       .  A
O58          C60   1.268       .  A
C60        C1800   1.482       .  S
O61          C66   1.270       .  A
O62          C64   1.267       .  A
C63          O65   1.270       .  A
C63        C1713   1.474       .  S
C64        C1677   1.492       .  S
C66        C1701   1.461       .  S
Fe67         O83   2.065       .  S
Fe67         O73   2.091       .  S
Fe67         O80   2.095       .  S
Fe67         O72   2.039       .  S
Fe67         O78   1.957       .  S
Fe68         O71   2.038       .  S
Fe68         O75   2.073       .  S
Fe68         O79   2.033       .  S
Fe68         O84   2.065       .  S
Fe68         O78   1.942       .  S
Fe69         O87   2.115       .  S
Fe69         O74   2.069       .  S
Fe69         O81   2.058       .  S
Fe69         O70   2.104       .  S
Fe69         O78   1.967       .  S
O70          C77   1.274       .  A
O71          C85   1.266       .  A
O72          C77   1.264       .  A
O73          C76   1.278       .  A
O74          C86   1.267       .  A
O75          C88   1.270       .  A
C76          O81   1.272       .  A
C76        C1689   1.491       .  S
C77        C1617   1.480       .  S
O79          C82   1.266       .  A
O80          C82   1.275       .  A
C82        C1629   1.473       .  S
O83          C88   1.267       .  A
O84          C86   1.268       .  A
C85          O87   1.280       .  A
C85        C1653   1.495       .  S
C86        C1644   1.468       .  S
C88        C1764   1.486       .  S
Fe89        O105   2.092       .  S
Fe89         O95   2.037       .  S
Fe89        O102   2.059       .  S
Fe89         O94   2.087       .  S
Fe89        O100   1.955       .  S
Fe90         O93   2.066       .  S
Fe90         O97   2.038       .  S
Fe90        O101   2.073       .  S
Fe90        O106   2.041       .  S
Fe90        O100   1.940       .  S
Fe91        O109   2.067       .  S
Fe91         O96   2.114       .  S
Fe91        O103   2.098       .  S
Fe91         O92   2.049       .  S
Fe91        O100   1.964       .  S
O92          C99   1.271       .  A
O93         C107   1.268       .  A
O94          C99   1.276       .  A
O95          C98   1.264       .  A
O96         C108   1.280       .  A
O97         C110   1.267       .  A
C98         O103   1.272       .  A
C98        C1560   1.478       .  S
C99        C1581   1.488       .  S
O101        C104   1.269       .  A
O102        C104   1.265       .  A
C104       C1680   1.485       .  S
O105        C110   1.276       .  A
O106        C108   1.267       .  A
C107        O109   1.266       .  A
C107       C1608   1.465       .  S
C108       C1569   1.494       .  S
C110       C1593   1.472       .  S
Fe111       O127   2.063       .  S
Fe111       O117   2.066       .  S
Fe111       O124   2.071       .  S
Fe111       O116   2.044       .  S
Fe111       O122   1.966       .  S
Fe112       O115   2.052       .  S
Fe112       O119   2.068       .  S
Fe112       O123   2.048       .  S
Fe112       O128   2.055       .  S
Fe112       O122   1.948       .  S
Fe113       O131   2.094       .  S
Fe113       O118   2.085       .  S
Fe113       O125   2.068       .  S
Fe113       O114   2.092       .  S
Fe113       O122   1.974       .  S
O114        C121   1.271       .  A
O115        C129   1.268       .  A
O116        C121   1.265       .  A
O117        C120   1.272       .  A
O118        C130   1.271       .  A
O119        C132   1.269       .  A
C120        O125   1.273       .  A
C120       C1584   1.488       .  S
C121       C1509   1.474       .  S
O123        C126   1.268       .  A
O124        C126   1.269       .  A
C126       C1521   1.464       .  S
O127        C132   1.267       .  A
O128        C130   1.267       .  A
C129        O131   1.275       .  A
C129       C1548   1.491       .  S
C130       C1533   1.474       .  S
C132       C1656   1.485       .  S
Fe133       O149   2.081       .  S
Fe133       O139   2.039       .  S
Fe133       O146   2.064       .  S
Fe133       O138   2.072       .  S
Fe133       O144   1.979       .  S
Fe134       O137   2.056       .  S
Fe134       O141   2.038       .  S
Fe134       O145   2.068       .  S
Fe134       O150   2.049       .  S
Fe134       O144   1.960       .  S
Fe135       O153   2.081       .  S
Fe135       O140   2.085       .  S
Fe135       O147   2.082       .  S
Fe135       O136   2.069       .  S
Fe135       O144   1.987       .  S
O136        C143   1.273       .  A
O137        C151   1.266       .  A
O138        C143   1.274       .  A
O139        C142   1.262       .  A
O140        C152   1.272       .  A
O141        C154   1.266       .  A
C142        O147   1.268       .  A
C142       C1461   1.469       .  S
C143       C1476   1.489       .  S
O145        C148   1.268       .  A
O146        C148   1.266       .  A
C148       C1572   1.488       .  S
O149        C154   1.271       .  A
O150        C152   1.268       .  A
C151        O153   1.270       .  A
C151       C1485   1.473       .  S
C152       C1812   1.490       .  S
C154       C1497   1.468       .  S
Fe155       O171   2.064       .  S
Fe155       O161   2.083       .  S
Fe155       O168   2.083       .  S
Fe155       O160   2.046       .  S
Fe155       O166   1.960       .  S
Fe156       O159   2.041       .  S
Fe156       O163   2.067       .  S
Fe156       O167   2.034       .  S
Fe156       O172   2.064       .  S
Fe156       O166   1.943       .  S
Fe157       O175   2.118       .  S
Fe157       O162   2.074       .  S
Fe157       O169   2.061       .  S
Fe157       O158   2.107       .  S
Fe157       O166   1.966       .  S
O158        C165   1.273       .  A
O159        C173   1.265       .  A
O160        C165   1.264       .  A
O161        C164   1.276       .  A
O162        C174   1.270       .  A
O163        C176   1.268       .  A
C164        O169   1.274       .  A
C164       C1473   1.491       .  S
C165       C1425   1.481       .  S
O167        C170   1.266       .  A
O168        C170   1.272       .  A
C170       C1449   1.466       .  S
O171        C176   1.267       .  A
O172        C174   1.268       .  A
C173        O175   1.279       .  A
C173       C1776   1.499       .  S
C174       C1437   1.468       .  S
C176       C1545   1.480       .  S
Fe177       O193   2.076       .  S
Fe177       O183   2.047       .  S
Fe177       O190   2.065       .  S
Fe177       O182   2.068       .  S
Fe177       O188   1.963       .  S
Fe178       O181   2.064       .  S
Fe178       O185   2.049       .  S
Fe178       O189   2.073       .  S
Fe178       O194   2.053       .  S
Fe178       O188   1.946       .  S
Fe179       O197   2.075       .  S
Fe179       O184   2.097       .  S
Fe179       O191   2.093       .  S
Fe179       O180   2.056       .  S
Fe179       O188   1.970       .  S
O180        C187   1.271       .  A
O181        C195   1.268       .  A
O182        C187   1.273       .  A
O183        C186   1.266       .  A
O184        C196   1.276       .  A
O185        C198   1.268       .  A
C186        O191   1.271       .  A
C186       C1377   1.476       .  S
C187       C1413   1.482       .  S
O189        C192   1.270       .  A
O190        C192   1.267       .  A
C192       C1401   1.487       .  S
O193        C198   1.270       .  A
O194        C196   1.269       .  A
C195        O197   1.269       .  A
C195       C1716   1.469       .  S
C196       C1389   1.492       .  S
C198       C1596   1.464       .  S
Fe199       O215   2.069       .  S
Fe199       O205   2.070       .  S
Fe199       O212   2.077       .  S
Fe199       O204   2.045       .  S
Fe199       O210   1.960       .  S
Fe200       O203   2.049       .  S
Fe200       O207   2.068       .  S
Fe200       O211   2.044       .  S
Fe200       O216   2.059       .  S
Fe200       O210   1.944       .  S
Fe201       O219   2.100       .  S
Fe201       O206   2.069       .  S
Fe201       O213   2.051       .  S
Fe201       O202   2.089       .  S
Fe201       O210   1.967       .  S
O202        C209   1.270       .  A
O203        C217   1.269       .  A
O204        C209   1.265       .  A
O205        C208   1.273       .  A
O206        C218   1.267       .  A
O207        C220   1.268       .  A
C208        O213   1.271       .  A
C208       C1416   1.481       .  S
C209       C1344   1.474       .  S
O211        C214   1.268       .  A
O212        C214   1.272       .  A
C214       C1524   1.466       .  S
O215        C220   1.267       .  A
O216        C218   1.267       .  A
C217        O219   1.276       .  A
C217       C1353   1.492       .  S
C218       C1641   1.464       .  S
C220       C1365   1.490       .  S
Fe221       O237   2.080       .  S
Fe221       O227   2.045       .  S
Fe221       O234   2.063       .  S
Fe221       O226   2.081       .  S
Fe221       O232   1.952       .  S
Fe222       O225   2.067       .  S
Fe222       O229   2.044       .  S
Fe222       O233   2.071       .  S
Fe222       O238   2.043       .  S
Fe222       O232   1.940       .  S
Fe223       O241   2.068       .  S
Fe223       O228   2.112       .  S
Fe223       O235   2.098       .  S
Fe223       O224   2.049       .  S
Fe223       O232   1.962       .  S
O224        C231   1.272       .  A
O225        C239   1.269       .  A
O226        C231   1.276       .  A
O227        C230   1.264       .  A
O228        C240   1.278       .  A
O229        C242   1.269       .  A
C230        O235   1.271       .  A
C230       C1305   1.481       .  S
C231       C1329   1.483       .  S
O233        C236   1.268       .  A
O234        C236   1.267       .  A
C236       C1392   1.481       .  S
O237        C242   1.273       .  A
O238        C240   1.266       .  A
C239        O241   1.268       .  A
C239       C1836   1.465       .  S
C240       C1317   1.495       .  S
C242       C1704   1.470       .  S
Fe243       O259   2.064       .  S
Fe243       O249   2.066       .  S
Fe243       O256   2.073       .  S
Fe243       O248   2.042       .  S
Fe243       O254   1.974       .  S
Fe244       O247   2.053       .  S
Fe244       O251   2.069       .  S
Fe244       O255   2.043       .  S
Fe244       O260   2.059       .  S
Fe244       O254   1.955       .  S
Fe245       O263   2.103       .  S
Fe245       O250   2.072       .  S
Fe245       O257   2.060       .  S
Fe245       O246   2.098       .  S
Fe245       O254   1.981       .  S
O246        C253   1.272       .  A
O247        C261   1.267       .  A
O248        C253   1.264       .  A
O249        C252   1.272       .  A
O250        C262   1.269       .  A
O251        C264   1.269       .  A
C252        O257   1.271       .  A
C252       C1332   1.483       .  S
C253       C1284   1.476       .  S
O255        C258   1.265       .  A
O256        C258   1.268       .  A
C258       C1632   1.462       .  S
O259        C264   1.268       .  A
O260        C262   1.268       .  A
C261        O263   1.277       .  A
C261       C1293   1.496       .  S
C262       C1740   1.471       .  S
C264       C1356   1.482       .  S
Fe265       O281   2.090       .  S
Fe265       O271   2.041       .  S
Fe265       O278   2.064       .  S
Fe265       O270   2.083       .  S
Fe265       O276   1.969       .  S
Fe266       O269   2.068       .  S
Fe266       O273   2.038       .  S
Fe266       O277   2.071       .  S
Fe266       O282   2.046       .  S
Fe266       O276   1.950       .  S
Fe267       O285   2.073       .  S
Fe267       O272   2.101       .  S
Fe267       O279   2.096       .  S
Fe267       O268   2.056       .  S
Fe267       O276   1.975       .  S
O268        C275   1.272       .  A
O269        C283   1.269       .  A
O270        C275   1.277       .  A
O271        C274   1.263       .  A
O272        C284   1.275       .  A
O273        C286   1.266       .  A
C274        O279   1.271       .  A
C274       C1245   1.477       .  S
C275       C1269   1.489       .  S
O277        C280   1.269       .  A
O278        C280   1.265       .  A
C280       C1320   1.488       .  S
O281        C286   1.274       .  A
O282        C284   1.266       .  A
C283        O285   1.270       .  A
C283       C1488   1.471       .  S
C284       C1257   1.494       .  S
C286       C1848   1.470       .  S
Fe287       O303   2.062       .  S
Fe287       O293   2.077       .  S
Fe287       O300   2.078       .  S
Fe287       O292   2.040       .  S
Fe287       O298   1.956       .  S
Fe288       O291   2.038       .  S
Fe288       O295   2.080       .  S
Fe288       O299   2.038       .  S
Fe288       O304   2.072       .  S
Fe288       O298   1.943       .  S
Fe289       O307   2.106       .  S
Fe289       O294   2.071       .  S
Fe289       O301   2.058       .  S
Fe289       O290   2.097       .  S
Fe289       O298   1.967       .  S
O290        C297   1.272       .  A
O291        C305   1.267       .  A
O292        C297   1.264       .  A
O293        C296   1.274       .  A
O294        C306   1.267       .  A
O295        C308   1.270       .  A
C296        O301   1.273       .  A
C296       C1272   1.488       .  S
C297       C1224   1.479       .  S
O299        C302   1.267       .  A
O300        C302   1.273       .  A
C302       C1749   1.466       .  S
O303        C308   1.267       .  A
O304        C306   1.269       .  A
C305        O307   1.278       .  A
C305       C1233   1.490       .  S
C306       C1440   1.470       .  S
C308       C1296   1.485       .  S
Fe309       O325   2.071       .  S
Fe309       O315   2.043       .  S
Fe309       O322   2.067       .  S
Fe309       O314   2.062       .  S
Fe309       O320   1.976       .  S
Fe310       O313   2.048       .  S
Fe310       O317   2.051       .  S
Fe310       O321   2.067       .  S
Fe310       O326   2.054       .  S
Fe310       O320   1.959       .  S
Fe311       O329   2.078       .  S
Fe311       O316   2.096       .  S
Fe311       O323   2.091       .  S
Fe311       O312   2.063       .  S
Fe311       O320   1.990       .  S
O312        C319   1.271       .  A
O313        C327   1.266       .  A
O314        C319   1.270       .  A
O315        C318   1.265       .  A
O316        C328   1.275       .  A
O317        C330   1.266       .  A
C318        O323   1.271       .  A
C318       C1197   1.475       .  S
C319       C1209   1.484       .  S
O321        C324   1.268       .  A
O322        C324   1.268       .  A
C324       C1260   1.486       .  S
O325        C330   1.268       .  A
O326        C328   1.268       .  A
C327        O329   1.268       .  A
C327       C1605   1.472       .  S
C328       C1404   1.496       .  S
C330       C1500   1.464       .  S
Fe331       O347   2.055       .  S
Fe331       O337   2.074       .  S
Fe331       O344   2.081       .  S
Fe331       O336   2.033       .  S
Fe331       O342   1.954       .  S
Fe332       O335   2.042       .  S
Fe332       O339   2.076       .  S
Fe332       O343   2.040       .  S
Fe332       O348   2.069       .  S
Fe332       O342   1.937       .  S
Fe333       O351   2.114       .  S
Fe333       O338   2.072       .  S
Fe333       O345   2.056       .  S
Fe333       O334   2.102       .  S
Fe333       O342   1.960       .  S
O334        C341   1.274       .  A
O335        C349   1.268       .  A
O336        C341   1.264       .  A
O337        C340   1.274       .  A
O338        C350   1.267       .  A
O339        C352   1.270       .  A
C340        O345   1.270       .  A
C340       C1212   1.485       .  S
C341       C1188   1.475       .  S
O343        C346   1.267       .  A
O344        C346   1.272       .  A
C346       C1452   1.464       .  S
O347        C352   1.266       .  A
O348        C350   1.268       .  A
C349        O351   1.280       .  A
C349       C1368   1.494       .  S
C350       C1536   1.469       .  S
C352       C1236   1.478       .  S
Fe353       O369   2.086       .  S
Fe353       O359   2.036       .  S
Fe353       O366   2.059       .  S
Fe353       O358   2.080       .  S
Fe353       O364   1.955       .  S
Fe354       O357   2.061       .  S
Fe354       O361   2.041       .  S
Fe354       O365   2.070       .  S
Fe354       O370   2.043       .  S
Fe354       O364   1.942       .  S
Fe355       O373   2.072       .  S
Fe355       O360   2.105       .  S
Fe355       O367   2.097       .  S
Fe355       O356   2.052       .  S
Fe355       O364   1.960       .  S
O356        C363   1.270       .  A
O357        C371   1.267       .  A
O358        C363   1.275       .  A
O359        C362   1.264       .  A
O360        C372   1.279       .  A
O361        C374   1.267       .  A
C362        O367   1.272       .  A
C362       C1341   1.474       .  S
C363       C1149   1.485       .  S
O365        C368   1.269       .  A
O366        C368   1.266       .  A
C368       C1137   1.481       .  S
O369        C374   1.274       .  A
O370        C372   1.267       .  A
C371        O373   1.268       .  A
C371       C1161   1.466       .  S
C372       C1128   1.492   1_655  S
C374       C1173   1.468       .  S
Fe375       O391   2.061       .  S
Fe375       O381   2.076       .  S
Fe375       O388   2.076       .  S
Fe375       O380   2.041       .  S
Fe375       O386   1.956       .  S
Fe376       O379   2.047       .  S
Fe376       O383   2.077       .  S
Fe376       O387   2.040       .  S
Fe376       O392   2.066       .  S
Fe376       O386   1.937       .  S
Fe377       O395   2.113       .  S
Fe377       O382   2.072       .  S
Fe377       O389   2.057       .  S
Fe377       O378   2.102       .  S
Fe377       O386   1.961       .  S
O378        C385   1.274       .  A
O379        C393   1.269       .  A
O380        C385   1.265       .  A
O381        C384   1.273       .  A
O382        C394   1.268       .  A
O383        C396   1.271       .  A
C384        O389   1.272       .  A
C384       C1152   1.485       .  S
C385       C1380   1.477       .  S
O387        C390   1.266       .  A
O388        C390   1.271       .  A
C390       C1080   1.462       .  S
O391        C396   1.267       .  A
O392        C394   1.269       .  A
C393        O395   1.279       .  A
C393       C1101   1.497   1_655  S
C394       C1089   1.467       .  S
C396       C1116   1.482       .  S
Fe397       O413   2.060       .  S
Fe397       O403   2.041       .  S
Fe397       O410   2.065       .  S
Fe397       O402   2.053       .  S
Fe397       O408   1.981       .  S
Fe398       O401   2.050       .  S
Fe398       O405   2.044       .  S
Fe398       O409   2.062       .  S
Fe398       O414   2.052       .  S
Fe398       O408   1.965       .  S
Fe399       O417   2.088       .  S
Fe399       O404   2.083       .  S
Fe399       O411   2.085       .  S
Fe399       O400   2.075       .  S
Fe399       O408   1.990       .  S
O400        C407   1.274       .  A
O401        C415   1.266       .  A
O402        C407   1.269       .  A
O403        C406   1.264       .  A
O404        C416   1.272       .  A
O405        C418   1.265       .  A
C406        O411   1.269       .  A
C406       C1221   1.472       .  S
C407       C1041   1.480       .  S
O409        C412   1.268       .  A
O410        C412   1.267       .  A
C412       C1029   1.487       .  S
O413        C418   1.265       .  A
O414        C416   1.266       .  A
C415        O417   1.272       .  A
C415       C1056   1.475       .  S
C416       C1017   1.490   1_455  S
C418       C1068   1.456       .  S
Fe419       O435   2.062       .  S
Fe419       O425   2.080       .  S
Fe419       O432   2.080       .  S
Fe419       O424   2.044       .  S
Fe419       O430   1.964       .  S
Fe420       O423   2.051       .  S
Fe420       O427   2.071       .  S
Fe420       O431   2.043       .  S
Fe420       O436   2.062       .  S
Fe420       O430   1.949       .  S
Fe421       O439   2.101       .  S
Fe421       O426   2.073       .  S
Fe421       O433   2.059       .  S
Fe421       O422   2.096       .  S
Fe421       O430   1.973       .  S
O422        C429   1.271       .  A
O423        C437   1.268       .  A
O424        C429   1.264       .  A
O425        C428   1.276       .  A
O426        C438   1.270       .  A
O427        C440   1.269       .  A
C428        O433   1.273       .  A
C428       C1044   1.486       .  S
C429       C1248   1.478       .  S
O431        C434   1.267       .  A
O432        C434   1.272       .  A
C434        C981   1.467       .  S
O435        C440   1.267       .  A
O436        C438   1.269       .  A
C437        O439   1.275       .  A
C437        C993   1.496   1_455  S
C438        C972   1.470       .  S
C440       C1005   1.483       .  S
Fe441       O457   2.078       .  S
Fe441       O447   2.046       .  S
Fe441       O454   2.067       .  S
Fe441       O446   2.073       .  S
Fe441       O452   1.965       .  S
Fe442       O445   2.058       .  S
Fe442       O449   2.040       .  S
Fe442       O453   2.069       .  S
Fe442       O458   2.044       .  S
Fe442       O452   1.952       .  S
Fe443       O461   2.071       .  S
Fe443       O448   2.099       .  S
Fe443       O455   2.092       .  S
Fe443       O444   2.055       .  S
Fe443       O452   1.972       .  S
O444        C451   1.271       .  A
O445        C459   1.266       .  A
O446        C451   1.273       .  A
O447        C450   1.265       .  A
O448        C460   1.277       .  A
O449        C462   1.266       .  A
C450        O455   1.271       .  A
C450       C1281   1.476       .  S
C451        C933   1.486       .  S
O453        C456   1.268       .  A
O454        C456   1.267       .  A
C456       C1020   1.486       .  S
O457        C462   1.271       .  A
O458        C460   1.267       .  A
C459        O461   1.268       .  A
C459        C960   1.466       .  S
C460       C1140   1.491   1_565  S
C462        C948   1.463       .  S
Fe463       O479   2.067       .  S
Fe463       O469   2.069       .  S
Fe463       O476   2.072       .  S
Fe463       O468   2.041       .  S
Fe463       O474   1.964       .  S
Fe464       O467   2.044       .  S
Fe464       O471   2.071       .  S
Fe464       O475   2.043       .  S
Fe464       O480   2.059       .  S
Fe464       O474   1.947       .  S
Fe465       O483   2.107       .  S
Fe465       O470   2.071       .  S
Fe465       O477   2.060       .  S
Fe465       O466   2.100       .  S
Fe465       O474   1.973       .  S
O466        C473   1.273       .  A
O467        C481   1.268       .  A
O468        C473   1.264       .  A
O469        C472   1.273       .  A
O470        C482   1.268       .  A
O471        C484   1.268       .  A
C472        O477   1.272       .  A
C472        C936   1.486       .  S
C473       C1308   1.479       .  S
O475        C478   1.267       .  A
O476        C478   1.270       .  A
C478        C909   1.464       .  S
O479        C484   1.267       .  A
O480        C482   1.267       .  A
C481        O483   1.278       .  A
C481       C1113   1.494   1_565  S
C482        C921   1.466       .  S
C484        C996   1.487       .  S
Fe485       O501   2.079       .  S
Fe485       O491   2.046       .  S
Fe485       O498   2.066       .  S
Fe485       O490   2.070       .  S
Fe485       O496   1.963       .  S
Fe486       O489   2.051       .  S
Fe486       O493   2.045       .  S
Fe486       O497   2.066       .  S
Fe486       O502   2.048       .  S
Fe486       O496   1.949       .  S
Fe487       O505   2.084       .  S
Fe487       O492   2.093       .  S
Fe487       O499   2.091       .  S
Fe487       O488   2.068       .  S
Fe487       O496   1.972       .  S
O488        C495   1.273       .  A
O489        C503   1.265       .  A
O490        C495   1.271       .  A
O491        C494   1.267       .  A
O492        C504   1.276       .  A
O493        C506   1.266       .  A
C494        O499   1.272       .  A
C494       C1185   1.474       .  S
C495        C873   1.490       .  S
O497        C500   1.269       .  A
O498        C500   1.268       .  A
C500       C1125   1.484       .  S
O501        C506   1.270       .  A
O502        C504   1.268       .  A
C503        O505   1.270       .  A
C503        C888   1.472       .  S
C504       C1032   1.489   1_545  S
C506        C897   1.464       .  S
Fe507       O523   2.068       .  S
Fe507       O513   2.077       .  S
Fe507       O520   2.084       .  S
Fe507       O512   2.040       .  S
Fe507       O518   1.970       .  S
Fe508       O511   2.044       .  S
Fe508       O515   2.072       .  S
Fe508       O519   2.038       .  S
Fe508       O524   2.064       .  S
Fe508       O518   1.953       .  S
Fe509       O527   2.102       .  S
Fe509       O514   2.076       .  S
Fe509       O521   2.062       .  S
Fe509       O510   2.093       .  S
Fe509       O518   1.976       .  S
O510        C517   1.271       .  A
O511        C525   1.268       .  A
O512        C517   1.264       .  A
O513        C516   1.275       .  A
O514        C526   1.267       .  A
O515        C528   1.268       .  A
C516        O521   1.271       .  A
C516        C876   1.489       .  S
C517       C1200   1.476       .  S
O519        C522   1.268       .  A
O520        C522   1.273       .  A
C522        C861   1.469       .  S
O523        C528   1.266       .  A
O524        C526   1.266       .  A
C525        O527   1.278       .  A
C525       C1008   1.490   1_545  S
C526        C852   1.472       .  S
C528       C1104   1.491       .  S
Fe529       O545   2.068       .  S
Fe529       O535   2.073       .  S
Fe529       O542   2.079       .  S
Fe529       O534   2.041       .  S
Fe529       O540   1.956       .  S
Fe530       O533   2.041       .  S
Fe530       O537   2.070       .  S
Fe530       O541   2.037       .  S
Fe530       O546   2.063       .  S
Fe530       O540   1.943       .  S
Fe531       O549   2.106       .  S
Fe531       O536   2.069       .  S
Fe531       O543   2.056       .  S
Fe531       O532   2.092       .  S
Fe531       O540   1.968       .  S
O532        C539   1.271       .  A
O533        C547   1.268       .  A
O534        C539   1.265       .  A
O535        C538   1.274       .  A
O536        C548   1.267       .  A
O537        C550   1.268       .  A
C538        O543   1.272       .  A
C538        C840   1.485       .  S
C539       C1557   1.477       .  S
O541        C544   1.267       .  A
O542        C544   1.273       .  A
C544       C1077   1.464       .  S
O545        C550   1.267       .  A
O546        C548   1.267       .  A
C547        O549   1.277       .  A
C547        C813   1.491   1_545  S
C548        C924   1.466       .  S
C550        C828   1.489       .  S
Fe551       O567   2.073       .  S
Fe551       O557   2.042       .  S
Fe551       O564   2.065       .  S
Fe551       O556   2.058       .  S
Fe551       O562   1.981       .  S
Fe552       O555   2.052       .  S
Fe552       O559   2.042       .  S
Fe552       O563   2.067       .  S
Fe552       O568   2.048       .  S
Fe552       O562   1.962       .  S
Fe553       O571   2.077       .  S
Fe553       O558   2.091       .  S
Fe553       O565   2.089       .  S
Fe553       O554   2.065       .  S
Fe553       O562   1.992       .  S
O554        C561   1.270       .  A
O555        C569   1.266       .  A
O556        C561   1.270       .  A
O557        C560   1.264       .  A
O558        C570   1.275   1_545  A
O559        C572   1.265       .  A
C560        O565   1.271       .  A
C560       C1512   1.472       .  S
C561        C837   1.485       .  S
O563        C566   1.269       .  A
O564        C566   1.266       .  A
C566        C801   1.488       .  S
O567        C572   1.268       .  A
O568        C570   1.267   1_545  A
C569        O571   1.269       .  A
C569        C957   1.471       .  S
C570        C789   1.491       .  S
C572       C1176   1.464       .  S
Fe573       O589   2.063       .  S
Fe573       O579   2.068       .  S
Fe573       O586   2.071       .  S
Fe573       O578   2.044       .  S
Fe573       O584   1.969       .  S
Fe574       O577   2.053       .  S
Fe574       O581   2.065       .  S
Fe574       O585   2.045       .  S
Fe574       O590   2.058       .  S
Fe574       O584   1.948       .  S
Fe575       O593   2.099       .  S
Fe575       O580   2.075       .  S
Fe575       O587   2.060       .  S
Fe575       O576   2.091       .  S
Fe575       O584   1.973       .  S
O576        C583   1.271       .  A
O577        C591   1.270       .  A
O578        C583   1.265       .  A
O579        C582   1.273       .  A
O580        C592   1.268       .  A
O581        C594   1.268       .  A
C582        O587   1.271       .  A
C582        C777   1.486       .  S
C583       C1668   1.475       .  S
O585        C588   1.268       .  A
O586        C588   1.270       .  A
C588        C912   1.461       .  S
O589        C594   1.266       .  A
O590        C592   1.266       .  A
C591        O593   1.276       .  A
C591        C765   1.496   1_655  S
C592        C969   1.467       .  S
C594        C816   1.483       .  S
Fe595       O611   2.079       .  S
Fe595       O601   2.042       .  S
Fe595       O608   2.060       .  S
Fe595       O600   2.070       .  S
Fe595       O606   1.969       .  S
Fe596       O599   2.063       .  S
Fe596       O603   2.046       .  S
Fe596       O607   2.074       .  S
Fe596       O612   2.048       .  S
Fe596       O606   1.949       .  S
Fe597       O615   2.074       .  S
Fe597       O602   2.104       .  S
Fe597       O609   2.101       .  S
Fe597       O598   2.059       .  S
Fe597       O606   1.975       .  S
O598        C605   1.271       .  A
O599        C613   1.267       .  A
O600        C605   1.271       .  A
O601        C604   1.265       .  A
O602        C614   1.278       .  A
O603        C616   1.268       .  A
C604        O609   1.274       .  A
C604       C1620   1.479       .  S
C605        C780   1.487       .  S
O607        C610   1.269       .  A
O608        C610   1.266       .  A
C610        C792   1.484       .  S
O611        C616   1.271       .  A
O612        C614   1.269       .  A
C613        O615   1.268       .  A
C613       C1053   1.471       .  S
C614        C753   1.495   1_655  S
C616        C945   1.466       .  S
Fe617       O633   2.069       .  S
Fe617       O623   2.070       .  S
Fe617       O630   2.080       .  S
Fe617       O622   2.043       .  S
Fe617       O628   1.959       .  S
Fe618       O621   2.048       .  S
Fe618       O625   2.070       .  S
Fe618       O629   2.040       .  S
Fe618       O634   2.060       .  S
Fe618       O628   1.944       .  S
Fe619       O637   2.097       .  S
Fe619       O624   2.077       .  S
Fe619       O631   2.061       .  S
Fe619       O620   2.090       .  S
Fe619       O628   1.970       .  S
O620        C627   1.270       .  A
O621        C635   1.268       .  A
O622        C627   1.266       .  A
O623        C626   1.273       .  A
O624        C636   1.270       .  A
O625        C638   1.269       .  A
C626        O631   1.273       .  A
C626        C741   1.485       .  S
C627       C1788   1.477       .  S
O629        C632   1.266       .  A
O630        C632   1.272       .  A
C632        C984   1.464       .  S
O633        C638   1.268       .  A
O634        C636   1.267       .  A
C635        O637   1.276       .  A
C635        C729   1.490   1_565  S
C636        C849   1.471       .  S
C638        C768   1.488       .  S
Fe639       O655   2.073       .  S
Fe639       O645   2.043       .  S
Fe639       O652   2.066       .  S
Fe639       O644   2.063       .  S
Fe639       O650   1.976       .  S
Fe640       O643   2.062       .  S
Fe640       O647   2.040       .  S
Fe640       O651   2.073       .  S
Fe640       O656   2.048       .  S
Fe640       O650   1.958       .  S
Fe641       O659   2.072       .  S
Fe641       O646   2.106       .  S
Fe641       O653   2.098       .  S
Fe641       O642   2.054       .  S
Fe641       O650   1.981       .  S
O642        C649   1.269       .  A
O643        C657   1.266       .  A
O644        C649   1.272       .  A
O645        C648   1.265       .  A
O646        C658   1.279       .  A
O647        C660   1.267       .  A
C648        O653   1.273       .  A
C648       C1725   1.479       .  S
C649        C744   1.483       .  S
O651        C654   1.268       .  A
O652        C654   1.266       .  A
C654        C756   1.491       .  S
O655        C660   1.270       .  A
O656        C658   1.268       .  A
C657        O659   1.266       .  A
C657        C885   1.471       .  S
C658        C717   1.495   1_565  S
C660       C1065   1.464       .  S
Fe661       O677   2.070       .  S
Fe661       O667   2.054       .  S
Fe661       O674   2.061       .  S
Fe661       O666   2.045       .  S
Fe661       O672   1.983       .  S
Fe662       O665   2.056       .  S
Fe662       O669   2.061       .  S
Fe662       O673   2.050       .  S
Fe662       O678   2.044       .  S
Fe662       O672   1.966       .  S
Fe663       O681   2.085       .  S
Fe663       O668   2.090       .  S
Fe663       O675   2.079       .  S
Fe663       O664   2.078       .  S
Fe663       O672   1.993       .  S
O664        C671   1.269       .  A
O665        C679   1.267       .  A
O666        C671   1.264       .  A
O667        C670   1.270       .  A
O668        C680   1.272       .  A
O669        C682   1.268       .  A
C670        O675   1.273       .  A
C670        C708   1.490       .  S
C671       C1464   1.467       .  S
O673        C676   1.266       .  A
O674        C676   1.265       .  A
C676        C864   1.458       .  S
O677        C682   1.269       .  A
O678        C680   1.265       .  A
C679        O681   1.273       .  A
C679        C825   1.494   1_455  S
C680       C1092   1.479       .  S
C682        C732   1.483       .  S
Fe683       O699   2.083       .  S
Fe683       O689   2.048       .  S
Fe683       O696   2.074       .  S
Fe683       O688   2.072       .  S
Fe683       O694   1.974       .  S
Fe684       O687   2.055       .  S
Fe684       O691   2.035       .  S
Fe684       O695   2.065       .  S
Fe684       O700   2.041       .  S
Fe684       O694   1.957       .  S
Fe685       O703   2.077       .  S
Fe685       O690   2.102       .  S
Fe685       O697   2.096       .  S
Fe685       O686   2.065       .  S
Fe685       O694   1.983       .  S
O686        C693   1.273       .  A
O687        C701   1.267       .  A
O688        C693   1.274       .  A
O689        C692   1.265       .  A
O690        C702   1.277       .  A
O691        C704   1.265       .  A
C692        O697   1.272       .  A
C692       C1428   1.478       .  S
C693        C705   1.489       .  S
O695        C698   1.268       .  A
O696        C698   1.268       .  A
C698        C720   1.491       .  S
O699        C704   1.271       .  A
O700        C702   1.265       .  A
C701        O703   1.269       .  A
C701       C1164   1.472       .  S
C702        C804   1.494   1_455  S
C704        C900   1.469       .  S
C705        C706   1.408       .  A
C705        C710   1.412       .  A
C706        C707   1.402   1_556  A
C706        H711   1.083       .  S
C707        C708   1.412       .  A
C707        O712   1.371       .  S
C708        C709   1.407       .  A
C709        C710   1.397   1_554  A
C709        H713   1.083       .  S
C710        O714   1.372       .  S
O712        H716   0.992       .  S
O714        H715   0.992       .  S
C717        C718   1.407       .  A
C717        C722   1.416       .  A
C718        C719   1.406       .  A
C718        H723   1.083       .  S
C719        C720   1.413       .  A
C719        O724   1.371       .  S
C720        C721   1.404       .  A
C721        C722   1.399       .  A
C721        H725   1.084       .  S
C722        O726   1.372   1_545  S
O724        H728   0.992       .  S
O726        H727   0.992       .  S
C729        C730   1.409       .  A
C729        C734   1.413       .  A
C730        C731   1.400       .  A
C730        H735   1.083       .  S
C731        C732   1.409       .  A
C731        O736   1.372       .  S
C732        C733   1.405       .  A
C733        C734   1.401       .  A
C733        H737   1.084       .  S
C734        O738   1.371       .  S
O736        H740   0.992       .  S
O738        H739   0.992       .  S
C741        C742   1.406       .  A
C741        C746   1.414       .  A
C742        C743   1.398   1_554  A
C742        H747   1.083       .  S
C743        C744   1.413       .  A
C743        O748   1.372       .  S
C744        C745   1.404       .  A
C745        C746   1.396   1_556  A
C745        H749   1.083       .  S
C746        O750   1.372       .  S
O748        H752   0.992       .  S
O750        H751   0.992       .  S
C753        C754   1.409       .  A
C753        C758   1.413       .  A
C754        C755   1.399       .  A
C754        H759   1.083       .  S
C755        C756   1.410       .  A
C755        O760   1.371       .  S
C756        C757   1.408       .  A
C757        C758   1.406       .  A
C757        H761   1.083       .  S
C758        O762   1.372       .  S
O760        H764   0.993       .  S
O762        H763   0.993       .  S
C765        C766   1.409       .  A
C765        C770   1.415       .  A
C766        C767   1.399       .  A
C766        H771   1.083       .  S
C767        C768   1.409       .  A
C767        O772   1.372       .  S
C768        C769   1.406       .  A
C769        C770   1.407       .  A
C769        H773   1.083       .  S
C770        O774   1.372       .  S
O772        H776   0.992       .  S
O774        H775   0.992       .  S
C777        C778   1.407       .  A
C777        C782   1.412       .  A
C778        C779   1.399   1_554  A
C778        H783   1.083       .  S
C779        C780   1.413       .  A
C779        O784   1.372       .  S
C780        C781   1.406       .  A
C781        C782   1.398   1_556  A
C781        H785   1.083       .  S
C782        O786   1.371       .  S
O784        H788   0.992       .  S
O786        H787   0.993       .  S
C789        C790   1.407       .  A
C789        C794   1.416       .  A
C790        C791   1.404       .  A
C790        H795   1.083       .  S
C791        C792   1.412       .  A
C791        O796   1.371       .  S
C792        C793   1.402       .  A
C793        C794   1.399       .  A
C793        H797   1.084       .  S
C794        O798   1.372       .  S
O796        H800   0.992       .  S
O798        H799   0.992       .  S
C801        C802   1.403       .  A
C801        C806   1.414       .  A
C802        C803   1.399       .  A
C802        H807   1.084       .  S
C803        C804   1.417       .  A
C803        O808   1.372       .  S
C804        C805   1.406       .  A
C805        C806   1.404       .  A
C805        H809   1.083       .  S
C806        O810   1.371       .  S
O808        H812   0.991   1_655  S
O810        H811   0.992       .  S
C813        C814   1.408       .  A
C813        C818   1.413       .  A
C814        C815   1.395       .  A
C814        H819   1.083       .  S
C815        C816   1.408       .  A
C815        O820   1.372       .  S
C816        C817   1.407       .  A
C817        C818   1.406       .  A
C817        H821   1.083       .  S
C818        O822   1.371       .  S
O820        H824   0.992       .  S
O822        H823   0.992       .  S
C825        C826   1.408       .  A
C825        C830   1.415       .  A
C826        C827   1.405       .  A
C826        H831   1.083       .  S
C827        C828   1.412       .  A
C827        O832   1.371       .  S
C828        C829   1.404       .  A
C829        C830   1.400       .  A
C829        H833   1.084       .  S
C830        O834   1.372       .  S
O832        H836   0.992       .  S
O834        H835   0.992   1_655  S
C837        C838   1.406       .  A
C837        C842   1.412       .  A
C838        C839   1.396   1_556  A
C838        H843   1.083       .  S
C839        C840   1.412       .  A
C839        O844   1.372       .  S
C840        C841   1.407       .  A
C841        C842   1.399   1_554  A
C841        H845   1.083       .  S
C842        O846   1.372       .  S
O844        H848   0.992       .  S
O846        H847   0.992       .  S
C849        C850   1.403       .  A
C849        C854   1.407   1_565  A
C850        C851   1.398       .  A
C850        H855   1.084       .  S
C851        C852   1.405   1_565  A
C851        O856   1.372       .  S
C852        C853   1.405       .  A
C853        C854   1.406       .  A
C853        H857   1.083       .  S
C854        O858   1.372       .  S
O856        H860   0.991       .  S
O858        H859   0.992       .  S
C861        C862   1.402       .  A
C861        C866   1.410       .  A
C862        C863   1.399       .  A
C862        H867   1.084       .  S
C863        C864   1.405       .  A
C863        O868   1.370       .  S
C864        C865   1.397       .  A
C865        C866   1.394       .  A
C865        H869   1.084       .  S
C866        O870   1.372       .  S
O868        H872   0.992       .  S
O870        H871   0.991       .  S
C873        C874   1.406       .  A
C873        C878   1.415       .  A
C874        C875   1.400       .  A
C874        H879   1.083       .  S
C875        C876   1.414       .  A
C875        O880   1.372       .  S
C876        C877   1.405       .  A
C877        C878   1.400       .  A
C877        H881   1.083       .  S
C878        O882   1.372       .  S
O880        H884   0.992       .  S
O882        H883   0.992       .  S
C885        C886   1.400   1_565  A
C885        C890   1.408       .  A
C886        C887   1.399       .  A
C886        H891   1.084       .  S
C887        C888   1.409       .  A
C887        O892   1.371       .  S
C888        C889   1.403   1_545  A
C889        C890   1.404       .  A
C889        H893   1.084       .  S
C890        O894   1.371       .  S
O892        H896   0.991       .  S
O894        H895   0.991       .  S
C897        C898   1.404       .  A
C897        C902   1.404       .  A
C898        C899   1.400       .  A
C898        H903   1.082       .  S
C899        C900   1.405       .  A
C899        O904   1.371       .  S
C900        C901   1.405       .  A
C901        C902   1.395       .  A
C901        H905   1.082       .  S
C902        O906   1.373       .  S
O904        H908   0.992       .  S
O906        H907   0.993       .  S
C909        C910   1.403       .  A
C909        C914   1.407       .  A
C910        C911   1.395       .  A
C910        H915   1.084       .  S
C911        C912   1.405       .  A
C911        O916   1.372       .  S
C912        C913   1.402       .  A
C913        C914   1.396       .  A
C913        H917   1.084       .  S
C914        O918   1.371       .  S
O916        H920   0.991       .  S
O918        H919   0.992       .  S
C921        C922   1.402       .  A
C921        C926   1.406   1_565  A
C922        C923   1.398       .  A
C922        H927   1.084       .  S
C923        C924   1.404   1_565  A
C923        O928   1.372       .  S
C924        C925   1.404       .  A
C925        C926   1.403       .  A
C925        H929   1.084       .  S
C926        O930   1.372       .  S
O928        H932   0.992       .  S
O930        H931   0.991       .  S
C933        C934   1.406       .  A
C933        C938   1.412       .  A
C934        C935   1.397       .  A
C934        H939   1.083       .  S
C935        C936   1.412       .  A
C935        O940   1.372       .  S
C936        C937   1.407       .  A
C937        C938   1.398       .  A
C937        H941   1.083       .  S
C938        O942   1.372       .  S
O940        H944   0.992       .  S
O942        H943   0.992       .  S
C945        C946   1.400       .  A
C945        C950   1.407       .  A
C946        C947   1.397       .  A
C946        H951   1.084       .  S
C947        C948   1.409       .  A
C947        O952   1.371       .  S
C948        C949   1.398       .  A
C949        C950   1.394       .  A
C949        H953   1.084       .  S
C950        O954   1.367       .  S
O952        H956   0.991       .  S
O954        H955   0.992       .  S
C957        C958   1.402       .  A
C957        C962   1.406   1_545  A
C958        C959   1.398       .  A
C958        H963   1.078       .  S
C959        C960   1.404   1_545  A
C959        O964   1.373       .  S
C960        C961   1.404       .  A
C961        C962   1.403       .  A
C961        H965   1.082       .  S
C962        O966   1.372       .  S
O964        H968   0.992       .  S
O966        H967   0.992       .  S
C969        C970   1.405       .  A
C969        C974   1.405   1_655  A
C970        C971   1.405       .  A
C970        H975   1.084       .  S
C971        C972   1.407   1_655  A
C971        O976   1.371       .  S
C972        C973   1.402       .  A
C973        C974   1.396       .  A
C973        H977   1.083       .  S
C974        O978   1.372       .  S
O976        H980   0.992       .  S
O978        H979   0.991       .  S
C981        C982   1.404       .  A
C981        C986   1.406       .  A
C982        C983   1.396       .  A
C982        H987   1.083       .  S
C983        C984   1.405       .  A
C983        O988   1.372       .  S
C984        C985   1.404       .  A
C985        C986   1.397       .  A
C985        H989   1.084       .  S
C986        O990   1.371       .  S
O988        H992   0.991       .  S
O990        H991   0.992       .  S
C993        C994   1.409       .  A
C993        C998   1.415       .  A
C994        C995   1.401       .  A
C994        H999   1.083       .  S
C995        C996   1.409       .  A
C995       O1000   1.372       .  S
C996        C997   1.406       .  A
C997        C998   1.405       .  A
C997       H1001   1.084       .  S
C998       O1002   1.371       .  S
O1000      H1004   0.992       .  S
O1002      H1003   0.992       .  S
C1005      C1006   1.402       .  A
C1005      C1010   1.411       .  A
C1006      C1007   1.400       .  A
C1006      H1011   1.084       .  S
C1007      C1008   1.416       .  A
C1007      O1012   1.372       .  S
C1008      C1009   1.406       .  A
C1009      C1010   1.403       .  A
C1009      H1013   1.083       .  S
C1010      O1014   1.371       .  S
O1012      H1016   0.992       .  S
O1014      H1015   0.992       .  S
C1017      C1018   1.406       .  A
C1017      C1022   1.414       .  A
C1018      C1019   1.404       .  A
C1018      H1023   1.083       .  S
C1019      C1020   1.412       .  A
C1019      O1024   1.372       .  S
C1020      C1021   1.404       .  A
C1021      C1022   1.401       .  A
C1021      H1025   1.084       .  S
C1022      O1026   1.373   1_655  S
O1024      H1028   0.991       .  S
O1026      H1027   0.992       .  S
C1029      C1030   1.404       .  A
C1029      C1034   1.414       .  A
C1030      C1031   1.399       .  A
C1030      H1035   1.084       .  S
C1031      C1032   1.414       .  A
C1031      O1036   1.372       .  S
C1032      C1033   1.405       .  A
C1033      C1034   1.401       .  A
C1033      H1037   1.083       .  S
C1034      O1038   1.372       .  S
O1036      H1040   0.992       .  S
O1038      H1039   0.992       .  S
C1041      C1042   1.403       .  A
C1041      C1046   1.411       .  A
C1042      C1043   1.399       .  A
C1042      H1047   1.084       .  S
C1043      C1044   1.414       .  A
C1043      O1048   1.371       .  S
C1044      C1045   1.406       .  A
C1045      C1046   1.398       .  A
C1045      H1049   1.083       .  S
C1046      O1050   1.372       .  S
O1048      H1052   0.992       .  S
O1050      H1051   0.992       .  S
C1053      C1054   1.400   1_655  A
C1053      C1058   1.406       .  A
C1054      C1055   1.401       .  A
C1054      H1059   1.084       .  S
C1055      C1056   1.410       .  A
C1055      O1060   1.371       .  S
C1056      C1057   1.401   1_455  A
C1057      C1058   1.402       .  A
C1057      H1061   1.084       .  S
C1058      O1062   1.368       .  S
O1060      H1064   0.992       .  S
O1062      H1063   0.991       .  S
C1065      C1066   1.404       .  A
C1065      C1070   1.406       .  A
C1066      C1067   1.393       .  A
C1066      H1071   1.083       .  S
C1067      C1068   1.402       .  A
C1067      O1072   1.372       .  S
C1068      C1069   1.402       .  A
C1069      C1070   1.397       .  A
C1069      H1073   1.082       .  S
C1070      O1074   1.371       .  S
O1072      H1076   0.991       .  S
O1074      H1075   0.992       .  S
C1077      C1078   1.404       .  A
C1077      C1082   1.406       .  A
C1078      C1079   1.395       .  A
C1078      H1083   1.084       .  S
C1079      C1080   1.406       .  A
C1079      O1084   1.372       .  S
C1080      C1081   1.403       .  A
C1081      C1082   1.395       .  A
C1081      H1085   1.084       .  S
C1082      O1086   1.372       .  S
O1084      H1088   0.991       .  S
O1086      H1087   0.992       .  S
C1089      C1090   1.398   1_655  A
C1089      C1094   1.408       .  A
C1090      C1091   1.396       .  A
C1090      H1095   1.084       .  S
C1091      C1092   1.410       .  A
C1091      O1096   1.371       .  S
C1092      C1093   1.405   1_455  A
C1093      C1094   1.406       .  A
C1093      H1097   1.083       .  S
C1094      O1098   1.371       .  S
O1096      H1100   0.992       .  S
O1098      H1099   0.992       .  S
C1101      C1102   1.409       .  A
C1101      C1106   1.414       .  A
C1102      C1103   1.401       .  A
C1102      H1107   1.083       .  S
C1103      C1104   1.410       .  A
C1103      O1108   1.372       .  S
C1104      C1105   1.408       .  A
C1105      C1106   1.407       .  A
C1105      H1109   1.083       .  S
C1106      O1110   1.371       .  S
O1108      H1112   0.992       .  S
O1110      H1111   0.992       .  S
C1113      C1114   1.410       .  A
C1113      C1118   1.414       .  A
C1114      C1115   1.398       .  A
C1114      H1119   1.083       .  S
C1115      C1116   1.407       .  A
C1115      O1120   1.372       .  S
C1116      C1117   1.406       .  A
C1117      C1118   1.406       .  A
C1117      H1121   1.084       .  S
C1118      O1122   1.372       .  S
O1120      H1124   0.992       .  S
O1122      H1123   0.992       .  S
C1125      C1126   1.403       .  A
C1125      C1130   1.410       .  A
C1126      C1127   1.399       .  A
C1126      H1131   1.084       .  S
C1127      C1128   1.417       .  A
C1127      O1132   1.373       .  S
C1128      C1129   1.407       .  A
C1129      C1130   1.403       .  A
C1129      H1133   1.083       .  S
C1130      O1134   1.371       .  S
O1132      H1136   0.992       .  S
O1134      H1135   0.992       .  S
C1137      C1138   1.402       .  A
C1137      C1142   1.410       .  A
C1138      C1139   1.397       .  A
C1138      H1143   1.084       .  S
C1139      C1140   1.416       .  A
C1139      O1144   1.372   1_545  S
C1140      C1141   1.408       .  A
C1141      C1142   1.403       .  A
C1141      H1145   1.083       .  S
C1142      O1146   1.371       .  S
O1144      H1148   0.992       .  S
O1146      H1147   0.992       .  S
C1149      C1150   1.406       .  A
C1149      C1154   1.413       .  A
C1150      C1151   1.399       .  A
C1150      H1155   1.083       .  S
C1151      C1152   1.413       .  A
C1151      O1156   1.372       .  S
C1152      C1153   1.405       .  A
C1153      C1154   1.397       .  A
C1153      H1157   1.083       .  S
C1154      O1158   1.372       .  S
O1156      H1160   0.992       .  S
O1158      H1159   0.992       .  S
C1161      C1162   1.405       .  A
C1161      C1166   1.404   1_655  A
C1162      C1163   1.404       .  A
C1162      H1167   1.083       .  S
C1163      C1164   1.406   1_655  A
C1163      O1168   1.371       .  S
C1164      C1165   1.403       .  A
C1165      C1166   1.396       .  A
C1165      H1169   1.082       .  S
C1166      O1170   1.372       .  S
O1168      H1172   0.991       .  S
O1170      H1171   0.992       .  S
C1173      C1174   1.399       .  A
C1173      C1178   1.411       .  A
C1174      C1175   1.397       .  A
C1174      H1179   1.084       .  S
C1175      C1176   1.407       .  A
C1175      O1180   1.370       .  S
C1176      C1177   1.400       .  A
C1177      C1178   1.398       .  A
C1177      H1181   1.084       .  S
C1178      O1182   1.371       .  S
O1180      H1184   0.992       .  S
O1182      H1183   0.992       .  S
C1185      C1186   1.401       .  A
C1185      C1190   1.409       .  A
C1186      C1187   1.395       .  A
C1186      H1191   1.084       .  S
C1187      C1188   1.409       .  A
C1187      O1192   1.373       .  S
C1188      C1189   1.405       .  A
C1189      C1190   1.407       .  A
C1189      H1193   1.084       .  S
C1190      O1194   1.371       .  S
O1192      H1196   0.993       .  S
O1194      H1195   0.992       .  S
C1197      C1198   1.402       .  A
C1197      C1202   1.409       .  A
C1198      C1199   1.396       .  A
C1198      H1203   1.084       .  S
C1199      C1200   1.408       .  A
C1199      O1204   1.373       .  S
C1200      C1201   1.405       .  A
C1201      C1202   1.407       .  A
C1201      H1205   1.083       .  S
C1202      O1206   1.371       .  S
O1204      H1208   0.992       .  S
O1206      H1207   0.991       .  S
C1209      C1210   1.405       .  A
C1209      C1214   1.412       .  A
C1210      C1211   1.399       .  A
C1210      H1215   1.083       .  S
C1211      C1212   1.413       .  A
C1211      O1216   1.372       .  S
C1212      C1213   1.406       .  A
C1213      C1214   1.396       .  A
C1213      H1217   1.083       .  S
C1214      O1218   1.372       .  S
O1216      H1220   0.992       .  S
O1218      H1219   0.993       .  S
C1221      C1222   1.401       .  A
C1221      C1226   1.408       .  A
C1222      C1223   1.394       .  A
C1222      H1227   1.084       .  S
C1223      C1224   1.410       .  A
C1223      O1228   1.372       .  S
C1224      C1225   1.406       .  A
C1225      C1226   1.408       .  A
C1225      H1229   1.083       .  S
C1226      O1230   1.371       .  S
O1228      H1232   0.991       .  S
O1230      H1231   0.991       .  S
C1233      C1234   1.409       .  A
C1233      C1238   1.413       .  A
C1234      C1235   1.397       .  A
C1234      H1239   1.083       .  S
C1235      C1236   1.405       .  A
C1235      O1240   1.372       .  S
C1236      C1237   1.405       .  A
C1237      C1238   1.404       .  A
C1237      H1241   1.084       .  S
C1238      O1242   1.371       .  S
O1240      H1244   0.992       .  S
O1242      H1243   0.992       .  S
C1245      C1246   1.406       .  A
C1245      C1250   1.407       .  A
C1246      C1247   1.409       .  A
C1246      H1251   1.084       .  S
C1247      C1248   1.410       .  A
C1247      O1252   1.372       .  S
C1248      C1249   1.402       .  A
C1249      C1250   1.397       .  A
C1249      H1253   1.084       .  S
C1250      O1254   1.373       .  S
O1252      H1256   0.992       .  S
O1254      H1255   0.992       .  S
C1257      C1258   1.410       .  A
C1257      C1262   1.414       .  A
C1258      C1259   1.400       .  A
C1258      H1263   1.083       .  S
C1259      C1260   1.409       .  A
C1259      O1264   1.372       .  S
C1260      C1261   1.406       .  A
C1261      C1262   1.404       .  A
C1261      H1265   1.083       .  S
C1262      O1266   1.371       .  S
O1264      H1268   0.992       .  S
O1266      H1267   0.992       .  S
C1269      C1270   1.406       .  A
C1269      C1274   1.414       .  A
C1270      C1271   1.400       .  A
C1270      H1275   1.083       .  S
C1271      C1272   1.414       .  A
C1271      O1276   1.372       .  S
C1272      C1273   1.405       .  A
C1273      C1274   1.398       .  A
C1273      H1277   1.083       .  S
C1274      O1278   1.372       .  S
O1276      H1280   0.993       .  S
O1278      H1279   0.992       .  S
C1281      C1282   1.402       .  A
C1281      C1286   1.410       .  A
C1282      C1283   1.397       .  A
C1282      H1287   1.084       .  S
C1283      C1284   1.408       .  A
C1283      O1288   1.372       .  S
C1284      C1285   1.405       .  A
C1285      C1286   1.408       .  A
C1285      H1289   1.084       .  S
C1286      O1290   1.372       .  S
O1288      H1292   0.992       .  S
O1290      H1291   0.993       .  S
C1293      C1294   1.407       .  A
C1293      C1298   1.417       .  A
C1294      C1295   1.404       .  A
C1294      H1299   1.083       .  S
C1295      C1296   1.411       .  A
C1295      O1300   1.372       .  S
C1296      C1297   1.402       .  A
C1297      C1298   1.403       .  A
C1297      H1301   1.084       .  S
C1298      O1302   1.371       .  S
O1300      H1304   0.992       .  S
O1302      H1303   0.992       .  S
C1305      C1306   1.403       .  A
C1305      C1310   1.411       .  A
C1306      C1307   1.396       .  A
C1306      H1311   1.084       .  S
C1307      C1308   1.409       .  A
C1307      O1312   1.372       .  S
C1308      C1309   1.405       .  A
C1309      C1310   1.408       .  A
C1309      H1313   1.083       .  S
C1310      O1314   1.371       .  S
O1312      H1316   0.992       .  S
O1314      H1315   0.992       .  S
C1317      C1318   1.408       .  A
C1317      C1322   1.416       .  A
C1318      C1319   1.406       .  A
C1318      H1323   1.083       .  S
C1319      C1320   1.413       .  A
C1319      O1324   1.371       .  S
C1320      C1321   1.402       .  A
C1321      C1322   1.398       .  A
C1321      H1325   1.084       .  S
C1322      O1326   1.371       .  S
O1324      H1328   0.992       .  S
O1326      H1327   0.992       .  S
C1329      C1330   1.406       .  A
C1329      C1334   1.411       .  A
C1330      C1331   1.397       .  A
C1330      H1335   1.083       .  S
C1331      C1332   1.411       .  A
C1331      O1336   1.372       .  S
C1332      C1333   1.406       .  A
C1333      C1334   1.398       .  A
C1333      H1337   1.083       .  S
C1334      O1338   1.372       .  S
O1336      H1340   0.992       .  S
O1338      H1339   0.992       .  S
C1341      C1342   1.402       .  A
C1341      C1346   1.410       .  A
C1342      C1343   1.393       .  A
C1342      H1347   1.084       .  S
C1343      C1344   1.407       .  A
C1343      O1348   1.372       .  S
C1344      C1345   1.405       .  A
C1345      C1346   1.408       .  A
C1345      H1349   1.083       .  S
C1346      O1350   1.372       .  S
O1348      H1352   0.991       .  S
O1350      H1351   0.992       .  S
C1353      C1354   1.409       .  A
C1353      C1358   1.414       .  A
C1354      C1355   1.399       .  A
C1354      H1359   1.083       .  S
C1355      C1356   1.408       .  A
C1355      O1360   1.372       .  S
C1356      C1357   1.405       .  A
C1357      C1358   1.404       .  A
C1357      H1361   1.084       .  S
C1358      O1362   1.372       .  S
O1360      H1364   0.992       .  S
O1362      H1363   0.992       .  S
C1365      C1366   1.408       .  A
C1365      C1370   1.411       .  A
C1366      C1367   1.408       .  A
C1366      H1371   1.083       .  S
C1367      C1368   1.412       .  A
C1367      O1372   1.371       .  S
C1368      C1369   1.409       .  A
C1369      C1370   1.397       .  A
C1369      H1373   1.083       .  S
C1370      O1374   1.372       .  S
O1372      H1376   0.992       .  S
O1374      H1375   0.992       .  S
C1377      C1378   1.406       .  A
C1377      C1382   1.407       .  A
C1378      C1379   1.408       .  A
C1378      H1383   1.083       .  S
C1379      C1380   1.410       .  A
C1379      O1384   1.372       .  S
C1380      C1381   1.404       .  A
C1381      C1382   1.396       .  A
C1381      H1385   1.084       .  S
C1382      O1386   1.372       .  S
O1384      H1388   0.992       .  S
O1386      H1387   0.992       .  S
C1389      C1390   1.409       .  A
C1389      C1394   1.414       .  A
C1390      C1391   1.400       .  A
C1390      H1395   1.083       .  S
C1391      C1392   1.408       .  A
C1391      O1396   1.372       .  S
C1392      C1393   1.404       .  A
C1393      C1394   1.403       .  A
C1393      H1397   1.084       .  S
C1394      O1398   1.371       .  S
O1396      H1400   0.992       .  S
O1398      H1399   0.992       .  S
C1401      C1402   1.403       .  A
C1401      C1406   1.412       .  A
C1402      C1403   1.401       .  A
C1402      H1407   1.084       .  S
C1403      C1404   1.416       .  A
C1403      O1408   1.372       .  S
C1404      C1405   1.408       .  A
C1405      C1406   1.405       .  A
C1405      H1409   1.083       .  S
C1406      O1410   1.372       .  S
O1408      H1412   0.992       .  S
O1410      H1411   0.992       .  S
C1413      C1414   1.406       .  A
C1413      C1418   1.411       .  A
C1414      C1415   1.397       .  A
C1414      H1419   1.083       .  S
C1415      C1416   1.411       .  A
C1415      O1420   1.372       .  S
C1416      C1417   1.406       .  A
C1417      C1418   1.396       .  A
C1417      H1421   1.083       .  S
C1418      O1422   1.372       .  S
O1420      H1424   0.992       .  S
O1422      H1423   0.992       .  S
C1425      C1426   1.406       .  A
C1425      C1430   1.409       .  A
C1426      C1427   1.408       .  A
C1426      H1431   1.083       .  S
C1427      C1428   1.410       .  A
C1427      O1432   1.371       .  S
C1428      C1429   1.402       .  A
C1429      C1430   1.399       .  A
C1429      H1433   1.084       .  S
C1430      O1434   1.372       .  S
O1432      H1436   0.992       .  S
O1434      H1435   0.992       .  S
C1437      C1438   1.404       .  A
C1437      C1442   1.405       .  A
C1438      C1439   1.402       .  A
C1438      H1443   1.084       .  S
C1439      C1440   1.406       .  A
C1439      O1444   1.372       .  S
C1440      C1441   1.402       .  A
C1441      C1442   1.401       .  A
C1441      H1445   1.081       .  S
C1442      O1446   1.371       .  S
O1444      H1448   0.992       .  S
O1446      H1447   0.991       .  S
C1449      C1450   1.404       .  A
C1449      C1454   1.406       .  A
C1450      C1451   1.396       .  A
C1450      H1455   1.084       .  S
C1451      C1452   1.405       .  A
C1451      O1456   1.373       .  S
C1452      C1453   1.404       .  A
C1453      C1454   1.397       .  A
C1453      H1457   1.084       .  S
C1454      O1458   1.371       .  S
O1456      H1460   0.992       .  S
O1458      H1459   0.991       .  S
C1461      C1462   1.403       .  A
C1461      C1466   1.407       .  A
C1462      C1463   1.404       .  A
C1462      H1467   1.084       .  S
C1463      C1464   1.408       .  A
C1463      O1468   1.371       .  S
C1464      C1465   1.401       .  A
C1465      C1466   1.397       .  A
C1465      H1469   1.084       .  S
C1466      O1470   1.373       .  S
O1468      H1472   0.991       .  S
O1470      H1471   0.992       .  S
C1473      C1474   1.407       .  A
C1473      C1478   1.414       .  A
C1474      C1475   1.400   1_556  A
C1474      H1479   1.083       .  S
C1475      C1476   1.413       .  A
C1475      O1480   1.372       .  S
C1476      C1477   1.406       .  A
C1477      C1478   1.400   1_554  A
C1477      H1481   1.083       .  S
C1478      O1482   1.372       .  S
O1480      H1484   0.992       .  S
O1482      H1483   0.992       .  S
C1485      C1486   1.405       .  A
C1485      C1490   1.406       .  A
C1486      C1487   1.402       .  A
C1486      H1491   1.084       .  S
C1487      C1488   1.406       .  A
C1487      O1492   1.372       .  S
C1488      C1489   1.404       .  A
C1489      C1490   1.403       .  A
C1489      H1493   1.084       .  S
C1490      O1494   1.372       .  S
O1492      H1496   0.992       .  S
O1494      H1495   0.992       .  S
C1497      C1498   1.405       .  A
C1497      C1502   1.405       .  A
C1498      C1499   1.396       .  A
C1498      H1503   1.084       .  S
C1499      C1500   1.404       .  A
C1499      O1504   1.373       .  S
C1500      C1501   1.403       .  A
C1501      C1502   1.400       .  A
C1501      H1505   1.081       .  S
C1502      O1506   1.371       .  S
O1504      H1508   0.992       .  S
O1506      H1507   0.991       .  S
C1509      C1510   1.402       .  A
C1509      C1514   1.409       .  A
C1510      C1511   1.397       .  A
C1510      H1515   1.084       .  S
C1511      C1512   1.407       .  A
C1511      O1516   1.373       .  S
C1512      C1513   1.404       .  A
C1513      C1514   1.407       .  A
C1513      H1517   1.084       .  S
C1514      O1518   1.371       .  S
O1516      H1520   0.992       .  S
O1518      H1519   0.992       .  S
C1521      C1522   1.401       .  A
C1521      C1526   1.405       .  A
C1522      C1523   1.395       .  A
C1522      H1527   1.079       .  S
C1523      C1524   1.406       .  A
C1523      O1528   1.372       .  S
C1524      C1525   1.405       .  A
C1525      C1526   1.396       .  A
C1525      H1529   1.084       .  S
C1526      O1530   1.372       .  S
O1528      H1532   0.991       .  S
O1530      H1531   0.992       .  S
C1533      C1534   1.404       .  A
C1533      C1538   1.408       .  A
C1534      C1535   1.408       .  A
C1534      H1539   1.083       .  S
C1535      C1536   1.409       .  A
C1535      O1540   1.371       .  S
C1536      C1537   1.398       .  A
C1537      C1538   1.395       .  A
C1537      H1541   1.084       .  S
C1538      O1542   1.369       .  S
O1540      H1544   0.992       .  S
O1542      H1543   0.992       .  S
C1545      C1546   1.402       .  A
C1545      C1550   1.410       .  A
C1546      C1547   1.399       .  A
C1546      H1551   1.084       .  S
C1547      C1548   1.415       .  A
C1547      O1552   1.371       .  S
C1548      C1549   1.408       .  A
C1549      C1550   1.404       .  A
C1549      H1553   1.083       .  S
C1550      O1554   1.372       .  S
O1552      H1556   0.992       .  S
O1554      H1555   0.993       .  S
C1557      C1558   1.406       .  A
C1557      C1562   1.408       .  A
C1558      C1559   1.408       .  A
C1558      H1563   1.083       .  S
C1559      C1560   1.409       .  A
C1559      O1564   1.371       .  S
C1560      C1561   1.403       .  A
C1561      C1562   1.395       .  A
C1561      H1565   1.084       .  S
C1562      O1566   1.373       .  S
O1564      H1568   0.992       .  S
O1566      H1567   0.992       .  S
C1569      C1570   1.407       .  A
C1569      C1574   1.417       .  A
C1570      C1571   1.405       .  A
C1570      H1575   1.083       .  S
C1571      C1572   1.414       .  A
C1571      O1576   1.372       .  S
C1572      C1573   1.403       .  A
C1573      C1574   1.399       .  A
C1573      H1577   1.084       .  S
C1574      O1578   1.372       .  S
O1576      H1580   0.992       .  S
O1578      H1579   0.992       .  S
C1581      C1582   1.408       .  A
C1581      C1586   1.411       .  A
C1582      C1583   1.398   1_554  A
C1582      H1587   1.083       .  S
C1583      C1584   1.410       .  A
C1583      O1588   1.372       .  S
C1584      C1585   1.409       .  A
C1585      C1586   1.399   1_556  A
C1585      H1589   1.083       .  S
C1586      O1590   1.372       .  S
O1588      H1592   0.992       .  S
O1590      H1591   0.992       .  S
C1593      C1594   1.402       .  A
C1593      C1598   1.411       .  A
C1594      C1595   1.398       .  A
C1594      H1599   1.084       .  S
C1595      C1596   1.406       .  A
C1595      O1600   1.370       .  S
C1596      C1597   1.399       .  A
C1597      C1598   1.397       .  A
C1597      H1601   1.084       .  S
C1598      O1602   1.372       .  S
O1600      H1604   0.992       .  S
O1602      H1603   0.992       .  S
C1605      C1606   1.403       .  A
C1605      C1610   1.408       .  A
C1606      C1607   1.406       .  A
C1606      H1611   1.083       .  S
C1607      C1608   1.408       .  A
C1607      O1612   1.370       .  S
C1608      C1609   1.397       .  A
C1609      C1610   1.393       .  A
C1609      H1613   1.084       .  S
C1610      O1614   1.370       .  S
O1612      H1616   0.991       .  S
O1614      H1615   0.991       .  S
C1617      C1618   1.404       .  A
C1617      C1622   1.410       .  A
C1618      C1619   1.397       .  A
C1618      H1623   1.084       .  S
C1619      C1620   1.409       .  A
C1619      O1624   1.374       .  S
C1620      C1621   1.405       .  A
C1621      C1622   1.409       .  A
C1621      H1625   1.083       .  S
C1622      O1626   1.371       .  S
O1624      H1628   0.993       .  S
O1626      H1627   0.992       .  S
C1629      C1630   1.406       .  A
C1629      C1634   1.406       .  A
C1630      C1631   1.395       .  A
C1630      H1635   1.081       .  S
C1631      C1632   1.402       .  A
C1631      O1636   1.373       .  S
C1632      C1633   1.403       .  A
C1633      C1634   1.400       .  A
C1633      H1637   1.081       .  S
C1634      O1638   1.372       .  S
O1636      H1640   0.993       .  S
O1638      H1639   0.992       .  S
C1641      C1642   1.405       .  A
C1641      C1646   1.404       .  A
C1642      C1643   1.404       .  A
C1642      H1647   1.084       .  S
C1643      C1644   1.406       .  A
C1643      O1648   1.371       .  S
C1644      C1645   1.401       .  A
C1645      C1646   1.396       .  A
C1645      H1649   1.081       .  S
C1646      O1650   1.373       .  S
O1648      H1652   0.992       .  S
O1650      H1651   0.992       .  S
C1653      C1654   1.407       .  A
C1653      C1658   1.419       .  A
C1654      C1655   1.405       .  A
C1654      H1659   1.083       .  S
C1655      C1656   1.412       .  A
C1655      O1660   1.371       .  S
C1656      C1657   1.401       .  A
C1657      C1658   1.399       .  A
C1657      H1661   1.084       .  S
C1658      O1662   1.372       .  S
O1660      H1664   0.992       .  S
O1662      H1663   0.992       .  S
C1665      C1666   1.403       .  A
C1665      C1670   1.409       .  A
C1666      C1667   1.397       .  A
C1666      H1671   1.084       .  S
C1667      C1668   1.408       .  A
C1667      O1672   1.373       .  S
C1668      C1669   1.405       .  A
C1669      C1670   1.406       .  A
C1669      H1673   1.083       .  S
C1670      O1674   1.371       .  S
O1672      H1676   0.992       .  S
O1674      H1675   0.992       .  S
C1677      C1678   1.409       .  A
C1677      C1682   1.413       .  A
C1678      C1679   1.396       .  A
C1678      H1683   1.083       .  S
C1679      C1680   1.408       .  A
C1679      O1684   1.372       .  S
C1680      C1681   1.407       .  A
C1681      C1682   1.405       .  A
C1681      H1685   1.083       .  S
C1682      O1686   1.371       .  S
O1684      H1688   0.991       .  S
O1686      H1687   0.992       .  S
C1689      C1690   1.405       .  A
C1689      C1694   1.415       .  A
C1690      C1691   1.400   1_556  A
C1690      H1695   1.083       .  S
C1691      C1692   1.415       .  A
C1691      O1696   1.372       .  S
C1692      C1693   1.406       .  A
C1693      C1694   1.403   1_554  A
C1693      H1697   1.083       .  S
C1694      O1698   1.372       .  S
O1696      H1700   0.992       .  S
O1698      H1699   0.992       .  S
C1701      C1702   1.402       .  A
C1701      C1706   1.404       .  A
C1702      C1703   1.397       .  A
C1702      H1707   1.082       .  S
C1703      C1704   1.407       .  A
C1703      O1708   1.371       .  S
C1704      C1705   1.405       .  A
C1705      C1706   1.397       .  A
C1705      H1709   1.084       .  S
C1706      O1710   1.373       .  S
O1708      H1712   0.991       .  S
O1710      H1711   0.992       .  S
C1713      C1714   1.403       .  A
C1713      C1718   1.408       .  A
C1714      C1715   1.405       .  A
C1714      H1719   1.083       .  S
C1715      C1716   1.408       .  A
C1715      O1720   1.370       .  S
C1716      C1717   1.400       .  A
C1717      C1718   1.398       .  A
C1717      H1721   1.084       .  S
C1718      O1722   1.371       .  S
O1720      H1724   0.990       .  S
O1722      H1723   0.991       .  S
C1725      C1726   1.406       .  A
C1725      C1730   1.408       .  A
C1726      C1727   1.410       .  A
C1726      H1731   1.083       .  S
C1727      C1728   1.411       .  A
C1727      O1732   1.371       .  S
C1728      C1729   1.404       .  A
C1729      C1730   1.396       .  A
C1729      H1733   1.084       .  S
C1730      O1734   1.372       .  S
O1732      H1736   0.992       .  S
O1734      H1735   0.991       .  S
C1737      C1738   1.400       .  A
C1737      C1742   1.408       .  A
C1738      C1739   1.397       .  A
C1738      H1743   1.084       .  S
C1739      C1740   1.407       .  A
C1739      O1744   1.370       .  S
C1740      C1741   1.401       .  A
C1741      C1742   1.404       .  A
C1741      H1745   1.084       .  S
C1742      O1746   1.369       .  S
O1744      H1748   0.992       .  S
O1746      H1747   0.991       .  S
C1749      C1750   1.401       .  A
C1749      C1754   1.409       .  A
C1750      C1751   1.396       .  A
C1750      H1755   1.084       .  S
C1751      C1752   1.406       .  A
C1751      O1756   1.368       .  S
C1752      C1753   1.398       .  A
C1753      C1754   1.392       .  A
C1753      H1757   1.084       .  S
C1754      O1758   1.370       .  S
O1756      H1760   0.992       .  S
O1758      H1759   0.992       .  S
C1761      C1762   1.408       .  A
C1761      C1766   1.417       .  A
C1762      C1763   1.406       .  A
C1762      H1767   1.083       .  S
C1763      C1764   1.412       .  A
C1763      O1768   1.371       .  S
C1764      C1765   1.402       .  A
C1765      C1766   1.398       .  A
C1765      H1769   1.084       .  S
C1766      O1770   1.372       .  S
O1768      H1772   0.992       .  S
O1770      H1771   0.992       .  S
C1773      C1774   1.402       .  A
C1773      C1778   1.413       .  A
C1774      C1775   1.400       .  A
C1774      H1779   1.084       .  S
C1775      C1776   1.419       .  A
C1775      O1780   1.372       .  S
C1776      C1777   1.408       .  A
C1777      C1778   1.408       .  A
C1777      H1781   1.083       .  S
C1778      O1782   1.371       .  S
O1780      H1784   0.991       .  S
O1782      H1783   0.992       .  S
C1785      C1786   1.405       .  A
C1785      C1790   1.407       .  A
C1786      C1787   1.408       .  A
C1786      H1791   1.084       .  S
C1787      C1788   1.411       .  A
C1787      O1792   1.371       .  S
C1788      C1789   1.401       .  A
C1789      C1790   1.394       .  A
C1789      H1793   1.084       .  S
C1790      O1794   1.374       .  S
O1792      H1796   0.991       .  S
O1794      H1795   0.992       .  S
C1797      C1798   1.408       .  A
C1797      C1802   1.416       .  A
C1798      C1799   1.405       .  A
C1798      H1803   1.083       .  S
C1799      C1800   1.410       .  A
C1799      O1804   1.371       .  S
C1800      C1801   1.401       .  A
C1801      C1802   1.399       .  A
C1801      H1805   1.084       .  S
C1802      O1806   1.373       .  S
O1804      H1808   0.992       .  S
O1806      H1807   0.992       .  S
C1809      C1810   1.406       .  A
C1809      C1814   1.408       .  A
C1810      C1811   1.403       .  A
C1810      H1815   1.084       .  S
C1811      C1812   1.413       .  A
C1811      O1816   1.371       .  S
C1812      C1813   1.408       .  A
C1813      C1814   1.399       .  A
C1813      H1817   1.083       .  S
C1814      O1818   1.373       .  S
O1816      H1820   0.992       .  S
O1818      H1819   0.992       .  S
C1821      C1822   1.405       .  A
C1821      C1826   1.413       .  A
C1822      C1823   1.395   1_554  A
C1822      H1827   1.083       .  S
C1823      C1824   1.413       .  A
C1823      O1828   1.372       .  S
C1824      C1825   1.406       .  A
C1825      C1826   1.399   1_556  A
C1825      H1829   1.083       .  S
C1826      O1830   1.372       .  S
O1828      H1832   0.992       .  S
O1830      H1831   0.992       .  S
C1833      C1834   1.403       .  A
C1833      C1838   1.407       .  A
C1834      C1835   1.393       .  A
C1834      H1839   1.084       .  S
C1835      C1836   1.404       .  A
C1835      O1840   1.372       .  S
C1836      C1837   1.405       .  A
C1837      C1838   1.406       .  A
C1837      H1841   1.084       .  S
C1838      O1842   1.372       .  S
O1840      H1844   0.992       .  S
O1842      H1843   0.992       .  S
C1845      C1846   1.404       .  A
C1845      C1850   1.404       .  A
C1846      C1847   1.399       .  A
C1846      H1851   1.084       .  S
C1847      C1848   1.406       .  A
C1847      O1852   1.371       .  S
C1848      C1849   1.406       .  A
C1849      C1850   1.398       .  A
C1849      H1853   1.084       .  S
C1850      O1854   1.372       .  S
O1852      H1856   0.991       .  S
O1854      H1855   0.992       .  S
