geometry optimzed in LAMMPS
_audit_creation_date              2020-12-01 
_audit_creation_method            'lammps2cif' 
_symmetry_space_group_name_H-M    'P1' 
_symmetry_Int_Tables_number       1 
_symmetry_cell_setting            triclinic 
loop_ 
_symmetry_equiv_pos_as_xyz 
  x,y,z 
_cell_length_a                    38.81883969 
_cell_length_b                    39.12522127551125 
_cell_length_c                    40.0116701314836 
_cell_angle_alpha                 89.70636269186343 
_cell_angle_beta                  90.15899441042183 
_cell_angle_gamma                 89.99668436141414 
loop_ 
_atom_site_label 
_atom_site_type_symbol 
_atom_site_fract_x 
_atom_site_fract_y 
_atom_site_fract_z 
_atom_site_charge 
Fe1        Fe  0.47323820  0.96323758  0.12359204     1.65800
Fe2        Fe  0.44308003  0.89344678  0.16089604     1.73200
Fe3        Fe  0.39616512  0.93535306  0.10378917     1.54400
O4          O  0.38744997  0.98165827  0.12406326    -0.81600
O5          O  0.41443008  0.85904766  0.12979291    -0.79900
O6          O  0.43823840  0.00303287  0.11028057    -0.84100
O7          O  0.47665532  0.94653681  0.07635592    -0.79000
O8          O  0.36522469  0.91269038  0.14149313    -0.80800
O9          O  0.48555836  0.87836846  0.13495306    -0.83500
C10         C  0.45508252  0.95691806  0.05534446     0.97300
C11         C  0.40551321  0.00607434  0.11321135     1.04700
O12         O  0.43681730  0.93107212  0.13059053    -1.12500
O13         O  0.47076549  0.92605145  0.19514953    -0.74900
O14         O  0.47057834  0.97801707  0.17164394    -0.78400
O15         O  0.42292868  0.95813603  0.06240792    -0.79100
C16         C  0.47441858  0.95888549  0.19696360     0.96200
O17         O  0.51211887  0.92792203  0.13399075    -0.77100
O18         O  0.39947570  0.90554089  0.18589088    -0.82300
C19         C  0.40331962  0.86173072  0.09956827     0.98800
C20         C  0.37014071  0.90415474  0.17212775     1.04700
O21         O  0.40497139  0.88943223  0.08338082    -0.77900
C22         C  0.51085578  0.89648023  0.12612353     1.03000
Fe23       Fe  0.02200947  0.02954879  0.37619797     1.65800
Fe24       Fe  0.05440700  0.10047728  0.40935403     1.73200
Fe25       Fe  0.09482397  0.06082614  0.34733510     1.54400
O26         O  0.10927263  0.01479972  0.36595859    -0.81600
O27         O  0.07874359  0.13537908  0.37536173    -0.79900
O28         O  0.05762008  0.99061729  0.36163328    -0.84100
O29         O  0.01251878  0.04380420  0.32873314    -0.79000
O30         O  0.12915897  0.08542254  0.38105560    -0.80800
O31         O  0.00907868  0.11474526  0.38780202    -0.83500
C32         C  0.03244400  0.03537937  0.30568545     0.97300
C33         C  0.09067953  0.98887223  0.36032565     1.04700
O34         O  0.05784320  0.06289870  0.37881624    -1.12500
O35         O  0.03024171  0.06857834  0.44649947    -0.74900
O36         O  0.02949890  0.01625880  0.42464281    -0.78400
O37         O  0.06511342  0.03620618  0.30959767    -0.79100
C38         C  0.02609140  0.03597290  0.44941894     0.96200
O39         O  0.98301984  0.06469726  0.38791699    -0.77100
O40         O  0.10117957  0.08840828  0.42947021    -0.82300
C41         C  0.08439087  0.13357772  0.34381528     0.98800
C42         C  0.12835025  0.09231263  0.41234209     1.04700
O43         O  0.07958786  0.10612160  0.32812076    -0.77900
C44         C  0.98338039  0.09650194  0.38054013     1.03000
Fe45       Fe  0.21382283  0.76891888  0.24906874     1.65800
Fe46       Fe  0.14369421  0.80041677  0.28470985     1.73200
Fe47       Fe  0.18838282  0.84622750  0.22901263     1.54400
O48         O  0.23481324  0.85327951  0.25074563    -0.81600
O49         O  0.11030301  0.82894040  0.25241839    -0.79900
O50         O  0.25511292  0.80265708  0.23654289    -0.84100
O51         O  0.19632638  0.76692208  0.20207273    -0.79000
O52         O  0.16583085  0.87761345  0.26610559    -0.80800
O53         O  0.12838043  0.75842286  0.25811339    -0.83500
C54         C  0.20908289  0.78711290  0.18123299     0.97300
C55         C  0.25906900  0.83496962  0.24003073     1.04700
O56         O  0.18245133  0.80600846  0.25577799    -1.12500
O57         O  0.17575136  0.77258978  0.31985376    -0.74900
O58         O  0.22845119  0.77053379  0.29708245    -0.78400
O59         O  0.21134527  0.81896907  0.18818120    -0.79100
C60         C  0.20862040  0.76710462  0.32192493     0.96200
O61         O  0.17762366  0.73069998  0.25880495    -0.77100
O62         O  0.15533166  0.84393067  0.31013644    -0.82300
C63         C  0.11388203  0.84006472  0.22234010     0.98800
C64         C  0.15611970  0.87322578  0.29645648     1.04700
O65         O  0.14232098  0.83914969  0.20718341    -0.77900
C66         C  0.14608565  0.73263069  0.25040429     1.03000
Fe67       Fe  0.97287663  0.97074996  0.13974154     1.65800
Fe68       Fe  0.94382442  0.90007441  0.10358083     1.73200
Fe69       Fe  0.89670558  0.94053086  0.16063005     1.54400
O70         O  0.92310033  0.96375847  0.20169092    -0.81600
O71         O  0.90004795  0.91208629  0.07861394    -0.79900
O72         O  0.97732176  0.95522864  0.18741622    -0.84100
O73         O  0.93700131  0.00976761  0.15253805    -0.79000
O74         O  0.90724934  0.89482259  0.18145891    -0.80800
O75         O  0.97125998  0.93263852  0.06914035    -0.83500
C76         C  0.90409402  0.01159546  0.15051261     0.97300
C77         C  0.95531689  0.96372381  0.20865986     1.04700
O78         O  0.93722164  0.93752621  0.13365581    -1.12500
O79         O  0.98649590  0.88577982  0.12928604    -0.74900
O80         O  0.01251110  0.93584865  0.13036326    -0.78400
O81         O  0.88634171  0.98673977  0.14028298    -0.79100
C82         C  0.01157641  0.90418340  0.13796763     0.96200
O83         O  0.96961913  0.98489223  0.09119250    -0.77100
O84         O  0.91612170  0.86488490  0.13512239    -0.82300
C85         C  0.87097816  0.90927216  0.09244378     0.98800
C86         C  0.90590925  0.86707305  0.16561128     1.04700
O87         O  0.86604405  0.91710309  0.12314659    -0.77900
C88         C  0.97499938  0.96537508  0.06659838     1.03000
Fe89       Fe  0.77585986  0.22353725  0.26551627     1.65800
Fe90       Fe  0.84626317  0.19040364  0.23289644     1.73200
Fe91       Fe  0.79925653  0.14583246  0.28799263     1.54400
O92         O  0.77474025  0.17440638  0.32741601    -0.81600
O93         O  0.83234147  0.14749291  0.20824684    -0.79900
O94         O  0.79050704  0.22649097  0.31309452    -0.84100
O95         O  0.73383428  0.19048484  0.27651153    -0.79000
O96         O  0.84488554  0.15166505  0.31152218    -0.80800
O97         O  0.81665223  0.21819561  0.19629832    -0.83500
C98         C  0.72914744  0.15824123  0.27350345     0.97300
C99         C  0.77595055  0.20668334  0.33300602     1.04700
O100        O  0.80710739  0.18613430  0.26136972    -1.12500
O101        O  0.86239982  0.23280710  0.25799519    -0.74900
O102        O  0.81328470  0.26115571  0.25740374    -0.78400
O103        O  0.75336326  0.13899496  0.26438045    -0.79100
C104        C  0.84503081  0.25895067  0.26532720     0.96200
O105        O  0.76327503  0.22044247  0.21709067    -0.77100
O106        O  0.87804139  0.16198285  0.26692291    -0.82300
C107        C  0.83264405  0.11824621  0.22174418     0.98800
C108        C  0.87385442  0.15129326  0.29713834     1.04700
O109        O  0.82322090  0.11376061  0.25215509    -0.77900
C110        C  0.78385327  0.22235747  0.19278770     1.03000
Fe111      Fe  0.21460129  0.27378842  0.26366853     1.65800
Fe112      Fe  0.14562160  0.30492539  0.22629003     1.73200
Fe113      Fe  0.18767776  0.34999355  0.28419030     1.54400
O114        O  0.21144228  0.32204974  0.32505314    -0.81600
O115        O  0.15939655  0.34812996  0.20174208    -0.79900
O116        O  0.19544379  0.27105033  0.30982498    -0.84100
O117        O  0.25509714  0.30825653  0.27721409    -0.79000
O118        O  0.14105379  0.34075506  0.30431842    -0.80800
O119        O  0.17831061  0.27673566  0.19268921    -0.83500
C120        C  0.25906319  0.34071978  0.27436959     0.97300
C121        C  0.21085370  0.28962839  0.33001945     1.04700
O122        O  0.18330354  0.31047594  0.25648355    -1.12500
O123        O  0.12933390  0.26302486  0.25214454    -0.74900
O124        O  0.17881477  0.23552862  0.25256557    -0.78400
O125        O  0.23457816  0.35923625  0.26402548    -0.79100
C126        C  0.14705006  0.23725912  0.26009493     0.96200
O127        O  0.23055675  0.27658301  0.21635586    -0.77100
O128        O  0.11113617  0.33342455  0.25719243    -0.82300
C129        C  0.15701148  0.37701426  0.21563745     0.98800
C130        C  0.11336002  0.34311108  0.28778449     1.04700
O131        O  0.16474478  0.38143104  0.24658528    -0.77900
C132        C  0.21126214  0.27192752  0.19131328     1.03000
Fe133      Fe  0.01656817  0.52659838  0.13490491     1.65800
Fe134      Fe  0.04688123  0.59904516  0.10246663     1.73200
Fe135      Fe  0.09188154  0.55525060  0.15933096     1.54400
O136        O  0.06380399  0.52995240  0.19856041    -0.81600
O137        O  0.09151470  0.58843031  0.07845946    -0.79900
O138        O  0.01041072  0.53976772  0.18257763    -0.84100
O139        O  0.05199647  0.48661302  0.14741251    -0.79000
O140        O  0.08125035  0.59993412  0.18179199    -0.80800
O141        O  0.02048676  0.56818672  0.06578318    -0.83500
C142        C  0.08493844  0.48495903  0.14566999     0.97300
C143        C  0.03131199  0.52950762  0.20425485     1.04700
O144        O  0.05232659  0.56009821  0.13131237    -1.12500
O145        O  0.00348605  0.61217960  0.12739043    -0.74900
O146        O  0.97719653  0.56228327  0.12570213    -0.78400
O147        O  0.10242394  0.51049864  0.13674597    -0.79100
C148        C  0.97819349  0.59347821  0.13486885     0.96200
O149        O  0.02209452  0.51490770  0.08638672    -0.77100
O150        O  0.07371887  0.63228785  0.13643081    -0.82300
C151        C  0.12041758  0.58897880  0.09312077     0.98800
C152        C  0.08281527  0.62858251  0.16722674     1.04700
O153        O  0.12402014  0.57991903  0.12379883    -0.77900
C154        C  0.01790271  0.53545021  0.06226073     1.03000
Fe155      Fe  0.97068360  0.46768515  0.37231892     1.65800
Fe156      Fe  0.94405689  0.39657319  0.40966087     1.73200
Fe157      Fe  0.89544383  0.43463124  0.35123627     1.54400
O158        O  0.88334178  0.48150464  0.36922666    -0.81600
O159        O  0.91750183  0.36019862  0.37955559    -0.79900
O160        O  0.93404780  0.50559778  0.35908860    -0.84100
O161        O  0.97583382  0.45197291  0.32518396    -0.79000
O162        O  0.86543670  0.41190260  0.38981288    -0.80800
O163        O  0.98699830  0.38335518  0.38355770    -0.83500
C164        C  0.95384317  0.45895291  0.30324910     0.97300
C165        C  0.90118286  0.50727669  0.36115662     1.04700
O166        O  0.93592220  0.43348035  0.37877322    -1.12500
O167        O  0.97057026  0.43033890  0.44329748    -0.74900
O168        O  0.96678457  0.48228879  0.42044847    -0.78400
O169        O  0.92155422  0.45736050  0.30962367    -0.79100
C170        C  0.97283571  0.46318685  0.44537404     0.96200
O171        O  0.01125116  0.43412408  0.38248367    -0.77100
O172        O  0.89977810  0.40699242  0.43447860    -0.82300
C173        C  0.90765459  0.36081169  0.34895208     0.98800
C174        C  0.87047204  0.40431145  0.42073327     1.04700
O175        O  0.90657415  0.38808106  0.33199261    -0.77900
C176        C  0.01112882  0.40273242  0.37424549     1.03000
Fe177      Fe  0.27752142  0.72101981  0.01570080     1.65800
Fe178      Fe  0.34829220  0.69715771  0.48124918     1.73200
Fe179      Fe  0.31153279  0.64957761  0.04212751     1.54400
O180        O  0.28703726  0.67755595  0.08137044    -0.81600
O181        O  0.33780475  0.65265846  0.45738933    -0.79900
O182        O  0.29332562  0.72984972  0.06237722    -0.84100
O183        O  0.23971152  0.68446981  0.03067762    -0.79000
O184        O  0.35693130  0.66604309  0.06015852    -0.80800
O185        O  0.31581488  0.72301240  0.44521860    -0.83500
C186        C  0.23888723  0.65163526  0.03108818     0.97300
C187        C  0.28536544  0.70992983  0.08555006     1.04700
O188        O  0.31200385  0.68692029  0.01145303    -1.12500
O189        O  0.36299837  0.73682388  0.00444625    -0.74900
O190        O  0.31157370  0.76052276  0.00367297    -0.78400
O191        O  0.26531059  0.63413454  0.02451376    -0.79100
C192        C  0.34306988  0.76067570  0.01284336     0.96200
O193        O  0.26278241  0.72201261  0.46700081    -0.77100
O194        O  0.38575543  0.66798176  0.01248144    -0.82300
C195        C  0.34087704  0.62423260  0.47236009     0.98800
C196        C  0.38413977  0.66133014  0.04383437     1.04700
O197        O  0.33573764  0.61761085  0.00618367    -0.77900
C198        C  0.28280403  0.72674513  0.44255617     1.03000
Fe199      Fe  0.71526086  0.27167800  0.50081801     1.65800
Fe200      Fe  0.64910720  0.30229356  0.03584643     1.73200
Fe201      Fe  0.68638401  0.34714044  0.47812713     1.54400
O202        O  0.73185151  0.35792715  0.50049897    -0.81600
O203        O  0.60931238  0.32789116  0.50063281    -0.79900
O204        O  0.76172360  0.30952401  0.99215088    -0.84100
O205        O  0.70021628  0.26757333  0.45349904    -0.79000
O206        O  0.66748899  0.37977805  0.01725064    -0.80800
O207        O  0.63555541  0.26021986  0.00915988    -0.83500
C208        C  0.71305789  0.28802609  0.43315779     0.97300
C209        C  0.75734784  0.34040302  0.49132547     1.04700
O210        O  0.68812064  0.30903553  0.00748238    -1.12500
O211        O  0.68020142  0.27492696  0.07176520    -0.74900
O212        O  0.73369363  0.27711195  0.05138587    -0.78400
O213        O  0.71244202  0.32027494  0.43859710    -0.79100
C214        C  0.71319257  0.27263636  0.07541430     0.96200
O215        O  0.67986207  0.23193014  0.50907720    -0.77100
O216        O  0.66033338  0.34546711  0.06130475    -0.82300
C217        C  0.61272117  0.33748042  0.47004325     0.98800
C218        C  0.65838808  0.37459519  0.04769874     1.04700
O219        O  0.64149246  0.33598114  0.45552791    -0.77900
C220        C  0.65429951  0.23517665  0.00149153     1.03000
Fe221      Fe  0.47259228  0.46783344  0.38996924     1.65800
Fe222      Fe  0.43932587  0.39860735  0.35464898     1.73200
Fe223      Fe  0.39707786  0.43952912  0.41482353     1.54400
O224        O  0.42698717  0.46164693  0.45439163    -0.81600
O225        O  0.39443134  0.41260313  0.33248741    -0.79900
O226        O  0.47992123  0.45169318  0.43712699    -0.84100
O227        O  0.43859738  0.50786140  0.40519225    -0.79000
O228        O  0.40719231  0.39321616  0.43452063    -0.80800
O229        O  0.46575463  0.43047949  0.31941711    -0.83500
C230        C  0.40565536  0.51063179  0.40464387     0.97300
C231        C  0.45962724  0.46110340  0.45952539     1.04700
O232        O  0.43578814  0.43560926  0.38568578    -1.12500
O233        O  0.48284364  0.38244029  0.37782050    -0.74900
O234        O  0.51046888  0.43176060  0.37773857    -0.78400
O235        O  0.38690891  0.48618660  0.39523972    -0.79100
C236        C  0.50883190  0.40009565  0.38531143     0.96200
O237        O  0.46616814  0.48251132  0.34193852    -0.77100
O238        O  0.41290502  0.36407332  0.38703372    -0.82300
C239        C  0.36620296  0.41000278  0.34795531     0.98800
C240        C  0.40510350  0.36582706  0.41813134     1.04700
O241        O  0.36338049  0.41725559  0.37903415    -0.77900
C242        C  0.46974996  0.46309599  0.31698209     1.03000
Fe243      Fe  0.28296574  0.22588811  0.49861467     1.65800
Fe244      Fe  0.34848705  0.18813474  0.03815515     1.73200
Fe245      Fe  0.30750162  0.15014433  0.47352257     1.54400
O246        O  0.25986288  0.14165937  0.49296581    -0.81600
O247        O  0.38425788  0.16196525  0.50140002    -0.79900
O248        O  0.23856801  0.19175773  0.98730235    -0.84100
O249        O  0.30131616  0.23182524  0.45231140    -0.79000
O250        O  0.32480630  0.11291996  0.01625488    -0.80800
O251        O  0.36674392  0.23020124  0.01363121    -0.83500
C252        C  0.28659894  0.21415854  0.43075975     0.97300
C253        C  0.23615274  0.16193636  0.48412845     1.04700
O254        O  0.31054043  0.18507633  0.00772366    -1.12500
O255        O  0.31714821  0.21635447  0.07281795    -0.74900
O256        O  0.26496779  0.21914126  0.04921118    -0.78400
O257        O  0.28535088  0.18148797  0.43423771    -0.79100
C258        C  0.28435038  0.22188938  0.07445883     0.96200
O259        O  0.32032575  0.26149483  0.51246332    -0.77100
O260        O  0.33277802  0.14501608  0.06156305    -0.82300
C261        C  0.38227242  0.15478260  0.47010084     0.98800
C262        C  0.33364240  0.11646218  0.04697932     1.04700
O263        O  0.35471340  0.15847717  0.45360724    -0.77900
C264        C  0.34988150  0.25658606  0.00591325     1.03000
Fe265      Fe  0.52310331  0.02066628  0.39120874     1.65800
Fe266      Fe  0.55225842  0.09232515  0.35656477     1.73200
Fe267      Fe  0.59826030  0.05151600  0.41469999     1.54400
O268        O  0.57206348  0.02501848  0.45390547    -0.81600
O269        O  0.59774953  0.08155724  0.33367945    -0.79900
O270        O  0.51818939  0.03455677  0.43901669    -0.84100
O271        O  0.56006565  0.98221885  0.40258358    -0.79000
O272        O  0.58509934  0.09550058  0.43693432    -0.80800
O273        O  0.52747600  0.06011617  0.31998333    -0.83500
C274        C  0.59299144  0.98084760  0.40039209     0.97300
C275        C  0.53982305  0.02484955  0.46022472     1.04700
O276        O  0.55823186  0.05455140  0.38650069    -1.12500
O277        O  0.50738708  0.10542017  0.37950347    -0.74900
O278        O  0.48230621  0.05466609  0.38268609    -0.78400
O279        O  0.61054714  0.00686549  0.39254111    -0.79100
C280        C  0.48209041  0.08684352  0.38753722     0.96200
O281        O  0.52675407  0.00789322  0.34269026    -0.77100
O282        O  0.57757591  0.12675644  0.39085989    -0.82300
C283        C  0.62603950  0.08582190  0.34877360     0.98800
C284        C  0.58686251  0.12370733  0.42175794     1.04700
O285        O  0.62960879  0.07844643  0.37981694    -0.77900
C286        C  0.52376276  0.02737132  0.31758330     1.03000
Fe287      Fe  0.71969439  0.77043857  0.01585551     1.65800
Fe288      Fe  0.64938788  0.79745998  0.48214386     1.73200
Fe289      Fe  0.68786635  0.84506016  0.03719796     1.54400
O290        O  0.71264659  0.81953456  0.07786130    -0.81600
O291        O  0.66088753  0.84065204  0.45638693    -0.79900
O292        O  0.70531015  0.76547554  0.06372748    -0.84100
O293        O  0.75822939  0.80721227  0.02809464    -0.79000
O294        O  0.64239346  0.83379396  0.05859122    -0.80800
O295        O  0.68241464  0.77072557  0.44803868    -0.83500
C296        C  0.75934487  0.83990058  0.02564896     0.97300
C297        C  0.71336255  0.78763530  0.08483831     1.04700
O298        O  0.68501628  0.80482110  0.01023299    -1.12500
O299        O  0.63439502  0.75413893  0.00488210    -0.74900
O300        O  0.68568619  0.72971756  0.00719795    -0.78400
O301        O  0.73347133  0.85644601  0.01567848    -0.79100
C302        C  0.65343808  0.72942628  0.01329927     0.96200
O303        O  0.73477927  0.77056843  0.47157699    -0.77100
O304        O  0.61172840  0.82335794  0.01245645    -0.82300
C305        C  0.65998985  0.87012110  0.46910537     0.98800
C306        C  0.61418997  0.83360874  0.04285003     1.04700
O307        O  0.66336233  0.87524164  0.00057070    -0.77900
C308        C  0.71546839  0.76747530  0.44621769     1.03000
Fe309      Fe  0.77580033  0.72610465  0.25125722     1.65800
Fe310      Fe  0.84825281  0.69494884  0.28406020     1.73200
Fe311      Fe  0.80125557  0.64878315  0.23080716     1.54400
O312        O  0.75633459  0.64241565  0.25526792    -0.81600
O313        O  0.88029891  0.66669800  0.25043820    -0.79900
O314        O  0.73431473  0.69217533  0.24058674    -0.84100
O315        O  0.78867073  0.72937116  0.20297816    -0.79000
O316        O  0.82525802  0.61769327  0.26725737    -0.80800
O317        O  0.86217208  0.73730857  0.25732651    -0.83500
C318        C  0.77791185  0.70745029  0.18274944     0.97300
C319        C  0.73144936  0.65982751  0.24442457     1.04700
O320        O  0.80853950  0.68956213  0.25604313    -1.12500
O321        O  0.81808631  0.72200255  0.32072949    -0.74900
O322        O  0.76441174  0.72314766  0.30018964    -0.78400
O323        O  0.77669407  0.67562361  0.19039973    -0.79100
C324        C  0.78516245  0.72519482  0.32453157     0.96200
O325        O  0.81250709  0.76446755  0.25866300    -0.77100
O326        O  0.83740792  0.65171429  0.31020211    -0.82300
C327        C  0.87554614  0.65488469  0.22079013     0.98800
C328        C  0.83560818  0.62234398  0.29727999     1.04700
O329        O  0.84630468  0.65483272  0.20685947    -0.77900
C330        C  0.84395847  0.76292968  0.24978473     1.03000
Fe331      Fe  0.52317765  0.52824722  0.12517159     1.65800
Fe332      Fe  0.55220716  0.59814005  0.16204043     1.73200
Fe333      Fe  0.59981439  0.55752832  0.10560759     1.54400
O334        O  0.60889709  0.51108314  0.12611730    -0.81600
O335        O  0.58114717  0.63293542  0.13176926    -0.79900
O336        O  0.55855048  0.48891547  0.11217736    -0.84100
O337        O  0.51915038  0.54457730  0.07779556    -0.79000
O338        O  0.62992577  0.57983828  0.14425602    -0.80800
O339        O  0.51073320  0.61327282  0.13503812    -0.83500
C340        C  0.54094946  0.53515720  0.05678860     0.97300
C341        C  0.59135325  0.48651224  0.11508199     1.04700
O342        O  0.55896481  0.56102269  0.13177322    -1.12500
O343        O  0.52331067  0.56603784  0.19532879    -0.74900
O344        O  0.52649725  0.51379744  0.17349828    -0.78400
O345        O  0.57322669  0.53489938  0.06388051    -0.79100
C346        C  0.52030473  0.53330269  0.19790438     0.96200
O347        O  0.48423828  0.56349984  0.13500595    -0.77100
O348        O  0.59479276  0.58473074  0.18800016    -0.82300
C349        C  0.59096507  0.63140315  0.10117971     0.98800
C350        C  0.62436965  0.58690206  0.17510681     1.04700
O351        O  0.59104333  0.60386944  0.08489389    -0.77900
C352        C  0.48577879  0.59478503  0.12625878     1.03000
C353        C  0.64281223  0.63110709  0.21539313    -0.12200
C354        C  0.65157218  0.60248275  0.19583277     0.04800
C355        C  0.68616043  0.59233136  0.19373792    -0.07500
C356        C  0.71132812  0.61138228  0.21042237    -0.08300
C357        C  0.70278959  0.64068479  0.22908179    -0.02800
C358        C  0.66814711  0.65068671  0.23138471     0.04000
N359        N  0.65827945  0.68048454  0.24960421     0.66500
H360        H  0.61624630  0.63953073  0.21669731     0.15400
H361        H  0.73798524  0.60340468  0.20839930     0.15100
N362        N  0.69597592  0.56253186  0.17535455     0.74200
O363        O  0.66496539  0.70974898  0.23790201    -0.39200
O364        O  0.63756512  0.67773089  0.27371820    -0.39200
O365        O  0.72152546  0.56355163  0.15593431    -0.39900
O366        O  0.68093117  0.53440864  0.18058841    -0.39900
C367        C  0.65710761  0.68670320  0.05934301    -0.12200
C368        C  0.63760170  0.70175324  0.03361388     0.04800
C369        C  0.60164147  0.69550235  0.03245016    -0.07500
C370        C  0.58604414  0.67547461  0.05736617    -0.08300
C371        C  0.60548962  0.66102479  0.08336051    -0.02800
C372        C  0.64143883  0.66655962  0.08415195     0.04000
N373        N  0.66234741  0.65174953  0.11001904     0.66500
H374        H  0.68445993  0.69195083  0.06119509     0.15400
H375        H  0.55887743  0.66936579  0.05526117     0.15100
N376        N  0.58092386  0.70793357  0.00525303     0.74200
O377        O  0.69093450  0.63822556  0.10300322    -0.39200
O378        O  0.65436663  0.65606775  0.14023788    -0.39200
O379        O  0.58536338  0.70007111  0.47941801    -0.39900
O380        O  0.55187814  0.72120145  0.01083286    -0.39900
C381        C  0.71697449  0.73565778  0.39218410    -0.12200
C382        C  0.73298533  0.75825348  0.41429686     0.04800
C383        C  0.76757422  0.76835305  0.40776089    -0.07500
C384        C  0.78518937  0.75540600  0.37978826    -0.08300
C385        C  0.76900165  0.73305588  0.35748999    -0.02800
C386        C  0.73459193  0.72256843  0.36438244     0.04000
N387        N  0.71740822  0.69783519  0.34384180     0.66500
H388        H  0.69106306  0.72680877  0.39738054     0.15400
H389        H  0.81101390  0.76441116  0.37445892     0.15100
N390        N  0.78470579  0.79296483  0.42844194     0.74200
O391        O  0.73212980  0.67002557  0.33677735    -0.39200
O392        O  0.68639536  0.70232336  0.33531193    -0.39200
O393        O  0.81534684  0.78788460  0.43787707    -0.39900
O394        O  0.77052755  0.82130205  0.43450083    -0.39900
C395        C  0.76489947  0.77096954  0.11510395    -0.12200
C396        C  0.72895230  0.77372877  0.11515148     0.04800
C397        C  0.70940605  0.75102176  0.13480142    -0.07500
C398        C  0.72585932  0.72499643  0.15301039    -0.08300
C399        C  0.76192306  0.72208043  0.15283290    -0.02800
C400        C  0.78144699  0.74533313  0.13358443     0.04000
N401        N  0.81827921  0.74341429  0.13322536     0.66500
H402        H  0.78004715  0.78720259  0.09872953     0.15400
H403        H  0.71069751  0.70894396  0.16953436     0.15100
N404        N  0.67281386  0.75493602  0.13683048     0.74200
O405        O  0.83300122  0.71639670  0.12375239    -0.39200
O406        O  0.83611167  0.76939316  0.14021998    -0.39200
O407        O  0.65310196  0.73143186  0.12696817    -0.39900
O408        O  0.66011985  0.78270132  0.14696942    -0.39900
C409        C  0.61561204  0.89130945  0.42984958    -0.12200
C410        C  0.64571363  0.89784033  0.44840084     0.04800
C411        C  0.65963222  0.93089388  0.44857534    -0.07500
C412        C  0.64307581  0.95696890  0.43078605    -0.08300
C413        C  0.61201429  0.95091825  0.41340869    -0.02800
C414        C  0.59839733  0.91762367  0.41289564     0.04000
N415        N  0.56706751  0.91016659  0.39563187     0.66500
H416        H  0.60447116  0.86589724  0.42978693     0.15400
H417        H  0.65380470  0.98251173  0.43199954     0.15100
N418        N  0.69028127  0.93840375  0.46697615     0.74200
O419        O  0.56835974  0.89710726  0.36690677    -0.39200
O420        O  0.53901803  0.90983482  0.41150058    -0.39200
O421        O  0.71936659  0.93345301  0.45386090    -0.39900
O422        O  0.67832448  0.95192845  0.00337192    -0.39900
C423        C  0.42303989  0.15495066  0.42257299    -0.12200
C424        C  0.41103997  0.13885632  0.45172144     0.04800
C425        C  0.41950005  0.10422749  0.45724356    -0.07500
C426        C  0.44021267  0.08670483  0.43429361    -0.08300
C427        C  0.45342506  0.10324618  0.40588244    -0.02800
C428        C  0.44433805  0.13774259  0.39987535     0.04000
N429        N  0.45565565  0.15524358  0.37030784     0.66500
H430        H  0.41459557  0.18069588  0.41665531     0.15400
H431        H  0.44741009  0.06044505  0.43968377     0.15100
N432        N  0.40675205  0.08631618  0.48581498     0.74200
O433        O  0.45162872  0.14170417  0.34199117    -0.39200
O434        O  0.46749167  0.18522328  0.37219511    -0.39200
O435        O  0.38559512  0.06214481  0.48204303    -0.39900
O436        O  0.42185555  0.08985284  0.51351053    -0.39900
C437        C  0.50976127  0.48021331  0.23145935    -0.12200
C438        C  0.50786590  0.51625063  0.22913863     0.04800
C439        C  0.49199809  0.53411976  0.25540300    -0.07500
C440        C  0.47849968  0.51605071  0.28276168    -0.08300
C441        C  0.48063270  0.48003747  0.28517526    -0.02800
C442        C  0.49620333  0.46213639  0.25876946     0.04000
N443        N  0.49906642  0.42570292  0.25938691     0.66500
H444        H  0.52167271  0.46557615  0.21167588     0.15400
H445        H  0.46667370  0.53064668  0.30262736     0.15100
N446        N  0.48917187  0.57053876  0.25478964     0.74200
O447        O  0.47311986  0.40758693  0.25252024    -0.39200
O448        O  0.52837739  0.41190094  0.26151630    -0.39200
O449        O  0.46019430  0.58435124  0.24997486    -0.39900
O450        O  0.51434465  0.58860850  0.26404853    -0.39900
C451        C  0.47253484  0.51163992  0.99546565    -0.12200
C452        C  0.47620521  0.47737443  0.48858248     0.04800
C453        C  0.50943973  0.46657714  0.49919428    -0.07500
C454        C  0.53289605  0.48392492  0.02265336    -0.08300
C455        C  0.52590847  0.51871562  0.02712602    -0.02800
C456        C  0.49562353  0.53283895  0.01273764     0.04000
N457        N  0.48790055  0.56864639  0.01596016     0.66500
H458        H  0.45031199  0.52295388  0.98317008     0.15400
H459        H  0.55464189  0.47926115  0.52780671     0.15100
N460        N  0.52215917  0.43311925  0.49123785     0.74200
O461        O  0.51184563  0.59049335  0.01602169    -0.39200
O462        O  0.45702237  0.57873272  0.01683563    -0.39200
O463        O  0.55360182  0.42876795  0.48446207    -0.39900
O464        O  0.50263505  0.40743617  0.49372684    -0.39900
C465        C  0.41045798  0.30780484  0.44308929    -0.12200
C466        C  0.39044240  0.33669383  0.43644106     0.04800
C467        C  0.35889120  0.34105518  0.45334317    -0.07500
C468        C  0.34779389  0.31664882  0.47643636    -0.08300
C469        C  0.36750538  0.28743625  0.48330627    -0.02800
C470        C  0.39959710  0.28337656  0.46663400     0.04000
N471        N  0.42191399  0.25515688  0.47373152     0.66500
H472        H  0.43543959  0.30510583  0.43132777     0.15400
H473        H  0.32316513  0.32039147  0.48856897     0.15100
N474        N  0.33778666  0.37042539  0.44722244     0.74200
O475        O  0.43026477  0.23503124  0.45060012    -0.39200
O476        O  0.43994230  0.24302032  0.99058707    -0.39200
O477        O  0.32123371  0.37298276  0.42014345    -0.39900
O478        O  0.33239683  0.39158133  0.47033218    -0.39900
C479        C  0.59453029  0.37591408  0.42392726    -0.12200
C480        C  0.58445411  0.35346068  0.45004830     0.04800
C481        C  0.54894961  0.34644364  0.45415046    -0.07500
C482        C  0.52519987  0.36111144  0.43167052    -0.08300
C483        C  0.53565613  0.38351170  0.40595221    -0.02800
C484        C  0.57065461  0.39077483  0.40212119     0.04000
N485        N  0.58250308  0.41164675  0.37508911     0.66500
H486        H  0.62147953  0.38198806  0.42004488     0.15400
H487        H  0.49797818  0.35600742  0.43517527     0.15100
N488        N  0.53623202  0.32491252  0.48052313     0.74200
O489        O  0.59141515  0.44216172  0.38033537    -0.39200
O490        O  0.58742076  0.39855417  0.34673851    -0.39200
O491        O  0.54650067  0.33028087  0.01172822    -0.39900
O492        O  0.51173298  0.30455429  0.47465913    -0.39900
C493        C  0.59433859  0.42504915  0.09950758    -0.12200
C494        C  0.61008362  0.45712827  0.10064541     0.04800
C495        C  0.64276172  0.46154382  0.08528939    -0.07500
C496        C  0.65830909  0.43431594  0.06849616    -0.08300
C497        C  0.64249593  0.40228751  0.06733179    -0.02800
C498        C  0.61046848  0.39744194  0.08376363     0.04000
N499        N  0.59318497  0.36508584  0.08366260     0.66500
H500        H  0.56939502  0.42132653  0.11106658     0.15400
H501        H  0.68272618  0.43832899  0.05600009     0.15100
N502        N  0.65976559  0.49399055  0.08489803     0.74200
O503        O  0.60518041  0.34075169  0.10094265    -0.39200
O504        O  0.56231781  0.36354661  0.07381051    -0.39200
O505        O  0.68713783  0.49812663  0.10147557    -0.39900
O506        O  0.64966878  0.51720218  0.06516630    -0.39900
C507        C  0.64519840  0.17179056  0.48228273    -0.12200
C508        C  0.63262901  0.20517332  0.47976871     0.04800
C509        C  0.60539965  0.21198435  0.45681220    -0.07500
C510        C  0.59095570  0.18553242  0.43771569    -0.08300
C511        C  0.60301715  0.15205656  0.44086868    -0.02800
C512        C  0.63061586  0.14533371  0.46346697     0.04000
N513        N  0.64460878  0.11169749  0.46730548     0.66500
H514        H  0.66622220  0.16602589  0.49928839     0.15400
H515        H  0.57015722  0.19120966  0.42042433     0.15100
N516        N  0.61090477  0.25029219  0.94290769     0.74200
O517        O  0.63517072  0.09323843  0.49155779    -0.39200
O518        O  0.67038705  0.10288403  0.45025880    -0.39200
O519        O  0.63657043  0.26881574  0.93613180    -0.39900
O520        O  0.58123212  0.26027431  0.93434590    -0.39900
C521        C  0.39892483  0.57351555  0.41380164    -0.12200
C522        C  0.38818953  0.54005987  0.42037965     0.04800
C523        C  0.36158554  0.53444560  0.44402953    -0.07500
C524        C  0.34670382  0.56203652  0.46079279    -0.08300
C525        C  0.35701068  0.59557035  0.45396138    -0.02800
C526        C  0.38347771  0.60127480  0.43010439     0.04000
N527        N  0.39617339  0.63493821  0.42331258     0.66500
H528        H  0.41962380  0.57809934  0.39621064     0.15400
H529        H  0.32670584  0.55717776  0.47907352     0.15100
N530        N  0.35030589  0.50065663  0.45240442     0.74200
O531        O  0.41221505  0.65110370  0.44569552    -0.39200
O532        O  0.39517462  0.64673508  0.39391060    -0.39200
O533        O  0.35777783  0.48814354  0.48063653    -0.39900
O534        O  0.32757129  0.48638515  0.43470257    -0.39900
C535        C  0.47035358  0.63584244  0.08119683    -0.12200
C536        C  0.45977481  0.61015612  0.10389407     0.04800
C537        C  0.42516933  0.59991487  0.10424981    -0.07500
C538        C  0.40154372  0.61670539  0.08366489    -0.08300
C539        C  0.41172580  0.64340002  0.06206512    -0.02800
C540        C  0.44664405  0.65249440  0.06022120     0.04000
N541        N  0.45813994  0.67943033  0.03863432     0.66500
H542        H  0.49719468  0.64343026  0.08009446     0.15400
H543        H  0.37474647  0.60892908  0.08479421     0.15100
N544        N  0.41332876  0.57355358  0.12625039     0.74200
O545        O  0.46352825  0.70600871  0.54742340    -0.39200
O546        O  0.45954172  0.66732813  0.50853566    -0.39200
O547        O  0.39588205  0.58127424  0.15167983    -0.39900
O548        O  0.41527414  0.54271731  0.11735675    -0.39900
C549        C  0.85100125  0.53340602  0.33238197    -0.12200
C550        C  0.88252996  0.53806822  0.34933690     0.04800
C551        C  0.89692092  0.57101094  0.35077658    -0.07500
C552        C  0.88009598  0.59830156  0.33492766    -0.08300
C553        C  0.84920345  0.59337744  0.31705058    -0.02800
C554        C  0.83425547  0.56059447  0.31613041     0.04000
N555        N  0.80231958  0.55447836  0.29892015     0.66500
H556        H  0.83975140  0.50811568  0.33080141     0.15400
H557        H  0.89202073  0.62335090  0.33553250     0.15100
N558        N  0.92885261  0.57703811  0.36762637     0.74200
O559        O  0.79782407  0.52700699  0.28307747    -0.39200
O560        O  0.77745154  0.57502335  0.30194810    -0.39200
O561        O  0.95527752  0.58518587  0.35110313    -0.39900
O562        O  0.92989233  0.57736903  0.39914691    -0.39900
C563        C  0.82054801  0.34624857  0.48014007    -0.12200
C564        C  0.78705035  0.35896157  0.47657189     0.04800
C565        C  0.78145665  0.38775401  0.45546587    -0.07500
C566        C  0.80880987  0.40220992  0.43757233    -0.08300
C567        C  0.84220554  0.38934908  0.44088444    -0.02800
C568        C  0.84814711  0.36132451  0.46284894     0.04000
N569        N  0.88168936  0.34650660  0.46634314     0.66500
H570        H  0.82518450  0.32400107  0.49575812     0.15400
H571        H  0.80386129  0.42360495  0.42092504     0.15100
N572        N  0.75986092  0.41400715  0.97087034     0.74200
O573        O  0.89566128  0.34461857  0.49480713    -0.39200
O574        O  0.89521047  0.33118333  0.44200534    -0.39200
O575        O  0.75563503  0.42903023  0.99840289    -0.39900
O576        O  0.73114575  0.39426752  0.42422696    -0.39900
C577        C  0.89442287  0.60976284  0.18162304    -0.12200
C578        C  0.90332968  0.63821765  0.20143258     0.04800
C579        C  0.93700740  0.65104067  0.19969597    -0.07500
C580        C  0.96050933  0.63641655  0.17735280    -0.08300
C581        C  0.95130136  0.60859742  0.15670926    -0.02800
C582        C  0.91795768  0.59491476  0.15954852     0.04000
N583        N  0.90716157  0.56674616  0.13948875     0.66500
H584        H  0.86862948  0.59925962  0.18282991     0.15400
H585        H  0.98635458  0.64668829  0.17656391     0.15100
N586        N  0.94740049  0.67953339  0.21948689     0.74200
O587        O  0.90228614  0.53785822  0.15281721    -0.39200
O588        O  0.89852428  0.57168262  0.10942419    -0.39200
O589        O  0.96007465  0.67450308  0.24816465    -0.39900
O590        O  0.94921855  0.70885898  0.20635785    -0.39900
C591        C  0.96993244  0.51050470  0.98287136    -0.12200
C592        C  0.98412092  0.48082239  0.47676647     0.04800
C593        C  0.99152067  0.46309707  0.50661082    -0.07500
C594        C  0.02483356  0.48793014  0.02183286    -0.08300
C595        C  0.00855948  0.51901500  0.03007066    -0.02800
C596        C  0.98065147  0.53017933  0.01032786     0.04000
N597        N  0.96145528  0.55999412  0.01914966     0.66500
H598        H  0.98346042  0.53136440  0.45384962     0.15400
H599        H  0.04628592  0.47879338  0.03683898     0.15100
N600        N  0.98662559  0.42698848  0.50924058     0.74200
O601        O  0.95853016  0.58436689  0.99856348    -0.39200
O602        O  0.94357297  0.55996910  0.04544730    -0.39200
O603        O  0.01237827  0.40731195  0.50965401    -0.39900
O604        O  0.95705073  0.41515995  0.51536109    -0.39900
C605        C  0.00093720  0.46039434  0.26263886    -0.12200
C606        C  0.96855420  0.47338591  0.27230054     0.04800
C607        C  0.95881327  0.50624773  0.26127804    -0.07500
C608        C  0.98231832  0.52583472  0.24278735    -0.08300
C609        C  0.01496490  0.51310330  0.23355644    -0.02800
C610        C  0.02446999  0.47999332  0.24414719     0.04000
N611        N  0.05777126  0.46595145  0.23684882     0.66500
H612        H  0.00914243  0.43562803  0.27202252     0.15400
H613        H  0.97418200  0.55073979  0.23372151     0.15100
N614        N  0.92557486  0.52034154  0.26890964     0.74200
O615        O  0.08449596  0.48313990  0.24316595    -0.39200
O616        O  0.06080424  0.43444006  0.23087384    -0.39200
O617        O  0.92243135  0.55197430  0.27419132    -0.39900
O618        O  0.89879286  0.50264217  0.26440137    -0.39900
C619        C  0.18244121  0.58796452  0.07768789    -0.12200
C620        C  0.15001620  0.60309795  0.07445757     0.04800
C621        C  0.14640487  0.63286653  0.05446356    -0.07500
C622        C  0.17535518  0.64781807  0.03954092    -0.08300
C623        C  0.20803223  0.63320583  0.04343250    -0.02800
C624        C  0.21127268  0.60235133  0.06210016     0.04000
N625        N  0.24395887  0.58623154  0.06714051     0.66500
H626        H  0.18552241  0.56507198  0.09279041     0.15400
H627        H  0.17235399  0.67138638  0.02546499     0.15100
N628        N  0.11383337  0.64952297  0.05086040     0.74200
O629        O  0.26332338  0.59590120  0.09063701    -0.39200
O630        O  0.25112191  0.55925208  0.05147275    -0.39200
O631        O  0.10519823  0.67241171  0.07129791    -0.39900
O632        O  0.09627763  0.64515633  0.02463887    -0.39900
C633        C  0.28779440  0.39419522  0.29388541    -0.12200
C634        C  0.28953910  0.35837661  0.28921083     0.04800
C635        C  0.31701544  0.34022098  0.30434990    -0.07500
C636        C  0.34066399  0.35770146  0.32463496    -0.08300
C637        C  0.33792797  0.39302902  0.33000351    -0.02800
C638        C  0.31153129  0.41140947  0.31420703     0.04000
N639        N  0.30839906  0.44746687  0.31880091     0.66500
H640        H  0.26699795  0.40895242  0.28289193     0.15400
H641        H  0.36189952  0.34366688  0.33579691     0.15100
N642        N  0.32157639  0.30427539  0.29921034     0.74200
O643        O  0.31705824  0.46774859  0.29569334    -0.39200
O644        O  0.29438387  0.45893912  0.34485745    -0.39200
O645        O  0.32411006  0.29274169  0.26990802    -0.39900
O646        O  0.32742142  0.28472695  0.32377596    -0.39900
C647        C  0.26550432  0.26122753  0.15951243    -0.12200
C648        C  0.22908680  0.25923872  0.16081990     0.04800
C649        C  0.21163593  0.24360081  0.13414789    -0.07500
C650        C  0.23041745  0.23099751  0.10701674    -0.08300
C651        C  0.26678467  0.23336781  0.10551610    -0.02800
C652        C  0.28430022  0.24860632  0.13237348     0.04000
N653        N  0.32091816  0.25265690  0.13209618     0.66500
H654        H  0.27979749  0.27320232  0.17959520     0.15400
H655        H  0.21614696  0.21897408  0.08694289     0.15100
N656        N  0.17505718  0.23933015  0.13452139     0.74200
O657        O  0.33453690  0.27456534  0.11300918    -0.39200
O658        O  0.33907391  0.23796882  0.15408723    -0.39200
O659        O  0.15667025  0.25455768  0.11307112    -0.39900
O660        O  0.16168665  0.21687671  0.15316389    -0.39900
C661        C  0.23732344  0.28563786  0.38659302    -0.12200
C662        C  0.23217466  0.27154911  0.35518290     0.04800
C663        C  0.24548157  0.23827940  0.34841585    -0.07500
C664        C  0.26218315  0.21951763  0.37347392    -0.08300
C665        C  0.26697113  0.23338754  0.40506652    -0.02800
C666        C  0.25391933  0.26685429  0.41179145     0.04000
N667        N  0.25528276  0.28149367  0.44457503     0.66500
H668        H  0.22677170  0.31060865  0.39215531     0.15400
H669        H  0.27240322  0.19442200  0.36785727     0.15100
N670        N  0.24340574  0.22351689  0.31579012     0.74200
O671        O  0.26453935  0.31219629  0.44809393    -0.39200
O672        O  0.24072657  0.26638890  0.46863020    -0.39200
O673        O  0.26134620  0.23571970  0.29234432    -0.39900
O674        O  0.22852250  0.19513645  0.31186519    -0.39900
C675        C  0.09297916  0.38999403  0.32355308    -0.12200
C676        C  0.08482143  0.36045682  0.30518612     0.04800
C677        C  0.05195645  0.34600527  0.30848310    -0.07500
C678        C  0.02881866  0.35970575  0.33176589    -0.08300
C679        C  0.03756143  0.38840914  0.35142185    -0.02800
C680        C  0.06979326  0.40409178  0.34638596     0.04000
N681        N  0.08008619  0.43332105  0.36526254     0.66500
H682        H  0.11827868  0.40148329  0.32110883     0.15400
H683        H  0.00362815  0.34800278  0.33410826     0.15100
N684        N  0.04216406  0.31690552  0.28923855     0.74200
O685        O  0.08662474  0.43024268  0.39604670    -0.39200
O686        O  0.08679265  0.46108473  0.35046437    -0.39200
O687        O  0.03881347  0.28815638  0.30325368    -0.39900
O688        O  0.03235107  0.32084905  0.25937535    -0.39900
C689        C  0.13236469  0.46438425  0.18170802    -0.12200
C690        C  0.10429140  0.45623122  0.16076161     0.04800
C691        C  0.09456106  0.42190818  0.15727323    -0.07500
C692        C  0.11304824  0.39645135  0.17443517    -0.08300
C693        C  0.14078224  0.40473712  0.19585058    -0.02800
C694        C  0.15026761  0.43912690  0.19948230     0.04000
N695        N  0.17800909  0.44879715  0.22100606     0.66500
H696        H  0.13985701  0.49083140  0.18519317     0.15400
H697        H  0.10496103  0.37008007  0.17177929     0.15100
N698        N  0.06618207  0.41257382  0.13643180     0.74200
O699        O  0.20873326  0.44348745  0.21222414    -0.39200
O700        O  0.17198048  0.46567597  0.24713640    -0.39200
O701        O  0.07045117  0.40944018  0.10534735    -0.39900
O702        O  0.03778111  0.40426025  0.14940033    -0.39900
C703        C  0.68752016  0.15451405  0.31950600    -0.12200
C704        C  0.69863813  0.14179552  0.28873387     0.04800
C705        C  0.68636954  0.10953861  0.27810808    -0.07500
C706        C  0.66384658  0.09084655  0.29877729    -0.08300
C707        C  0.65369669  0.10334434  0.33006097    -0.02800
C708        C  0.66553882  0.13576819  0.34014254     0.04000
N709        N  0.65451442  0.15080710  0.37069202     0.66500
H710        H  0.69744544  0.17878213  0.32869809     0.15400
H711        H  0.65370339  0.06650508  0.29012198     0.15100
N712        N  0.69625865  0.09575324  0.24640185     0.74200
O713        O  0.67457949  0.14993192  0.39552792    -0.39200
O714        O  0.63127072  0.17332685  0.36959356    -0.39200
O715        O  0.70299025  0.06432124  0.24366474    -0.39900
O716        O  0.69556490  0.11434734  0.22053857    -0.39900
C717        C  0.78233841  0.25797729  0.14122598    -0.12200
C718        C  0.76772353  0.23189723  0.16045322     0.04800
C719        C  0.73394632  0.22035141  0.15254254    -0.07500
C720        C  0.71525069  0.23592790  0.12647782    -0.08300
C721        C  0.72977515  0.26220698  0.10736384    -0.02800
C722        C  0.76369986  0.27347777  0.11516004     0.04000
N723        N  0.77926965  0.30133790  0.09731337     0.66500
H724        H  0.80757520  0.26782132  0.14775393     0.15400
H725        H  0.69001729  0.22611021  0.11991967     0.15100
N726        N  0.71869405  0.19217448  0.17027345     0.74200
O727        O  0.76366842  0.32952757  0.09455267    -0.39200
O728        O  0.80960096  0.29861951  0.08634151    -0.39200
O729        O  0.68719053  0.19287185  0.17799458    -0.39900
O730        O  0.73598197  0.16541539  0.17592578    -0.39900
C731        C  0.71920995  0.27187272  0.37409357    -0.12200
C732        C  0.73248303  0.27160810  0.40641265     0.04800
C733        C  0.75810842  0.24726063  0.41524022    -0.07500
C734        C  0.76995318  0.22374403  0.39176108    -0.08300
C735        C  0.75677011  0.22402937  0.35938931    -0.02800
C736        C  0.73140596  0.24870314  0.35040626     0.04000
N737        N  0.71812522  0.25099634  0.31707242     0.66500
H738        H  0.69866042  0.28942185  0.36746763     0.15400
H739        H  0.79044651  0.20616711  0.39848557     0.15100
N740        N  0.77204638  0.24586393  0.44832741     0.74200
O741        O  0.68681856  0.24413705  0.31180199    -0.39200
O742        O  0.73452169  0.26796557  0.29543785    -0.39200
O743        O  0.76062699  0.22407242  0.46885365    -0.39900
O744        O  0.80019294  0.26073341  0.45443470    -0.39900
C745        C  0.84277314  0.30049574  0.31209494    -0.12200
C746        C  0.86170158  0.28568505  0.28603810     0.04800
C747        C  0.89739362  0.29269081  0.28384588    -0.07500
C748        C  0.91297268  0.31525174  0.30650841    -0.08300
C749        C  0.89387435  0.33024503  0.33224570    -0.02800
C750        C  0.85859720  0.32227979  0.33524937     0.04000
N751        N  0.83819485  0.33722986  0.36101010     0.66500
H752        H  0.81566778  0.29457461  0.31499658     0.15400
H753        H  0.93980174  0.32214308  0.30319289     0.15100
N754        N  0.91788312  0.27815717  0.25792303     0.74200
O755        O  0.81940907  0.36269978  0.35435987    -0.39200
O756        O  0.83404563  0.32132085  0.38821204    -0.39200
O757        O  0.91676225  0.29068454  0.22881911    -0.39900
O758        O  0.93993991  0.25551836  0.26493723    -0.39900
C759        C  0.81247130  0.90988107  0.06732090    -0.12200
C760        C  0.84344270  0.89280797  0.07301708     0.04800
C761        C  0.84765742  0.85911242  0.06108137    -0.07500
C762        C  0.82039773  0.84267024  0.04478216    -0.08300
C763        C  0.78899713  0.85942590  0.03930362    -0.02800
C764        C  0.78533376  0.89378107  0.05047966     0.04000
N765        N  0.75369962  0.91222836  0.04681169     0.66500
H766        H  0.80909002  0.93567139  0.07654267     0.15400
H767        H  0.82371461  0.81645055  0.03678619     0.15100
N768        N  0.87884897  0.84052294  0.06698041     0.74200
O769        O  0.72872489  0.90542413  0.06585543    -0.39200
O770        O  0.75317264  0.93946433  0.02978656    -0.39200
O771        O  0.87811411  0.81358256  0.08443274    -0.39900
O772        O  0.90526858  0.84718324  0.04983446    -0.39900
C773        C  0.86051955  0.84696950  0.20411358    -0.12200
C774        C  0.88888782  0.83858535  0.18378256     0.04800
C775        C  0.90194477  0.80516419  0.18507655    -0.07500
C776        C  0.88742529  0.78136239  0.20739006    -0.08300
C777        C  0.85971116  0.79010492  0.22857776    -0.02800
C778        C  0.84610683  0.82344415  0.22657139     0.04000
N779        N  0.81889680  0.83441784  0.24816823     0.66500
H780        H  0.85018516  0.87275731  0.20350560     0.15400
H781        H  0.89770898  0.75558122  0.20778576     0.15100
N782        N  0.93057476  0.79537455  0.16493903     0.74200
O783        O  0.82245186  0.83209684  0.27947176    -0.39200
O784        O  0.79352812  0.85065869  0.23629499    -0.39200
O785        O  0.96008216  0.79276272  0.17799410    -0.39900
O786        O  0.92535259  0.78348036  0.13612098    -0.39900
C787        C  0.86124814  0.03038982  0.19187600    -0.12200
C788        C  0.88525347  0.03941587  0.16705382     0.04800
C789        C  0.89051411  0.07392248  0.15940075    -0.07500
C790        C  0.87176387  0.09885895  0.17650526    -0.08300
C791        C  0.84800339  0.09007792  0.20192406    -0.02800
C792        C  0.84256053  0.05519715  0.20937608     0.04000
N793        N  0.81790244  0.04443426  0.23393472     0.66500
H794        H  0.85702431  0.00361908  0.19776765     0.15400
H795        H  0.87677576  0.12544014  0.17046405     0.15100
N796        N  0.91427233  0.08394083  0.13397674     0.74200
O797        O  0.78752210  0.05591830  0.23297025    -0.39200
O798        O  0.82495655  0.02004938  0.25358092    -0.39200
O799        O  0.90342585  0.09099187  0.10499554    -0.39900
O800        O  0.94540683  0.08935663  0.14136826    -0.39900
C801        C  0.10602043  0.71557975  0.20449275    -0.12200
C802        C  0.12983827  0.70582920  0.22949565     0.04800
C803        C  0.13879822  0.67121328  0.23254504    -0.07500
C804        C  0.12323546  0.64711245  0.21171449    -0.08300
C805        C  0.09860802  0.65651719  0.18726099    -0.02800
C806        C  0.09036668  0.69137271  0.18341269     0.04000
N807        N  0.06560956  0.70248430  0.15913091     0.66500
H808        H  0.09956459  0.74239234  0.20123008     0.15400
H809        H  0.13063224  0.62051675  0.21484291     0.15100
N810        N  0.16292681  0.65996864  0.25729425     0.74200
O811        O  0.03475696  0.69256838  0.16118652    -0.39200
O812        O  0.07348799  0.72540149  0.13819744    -0.39200
O813        O  0.15280242  0.65357962  0.28660705    -0.39900
O814        O  0.19332487  0.65254067  0.24892589    -0.39900
C815        C  0.23421991  0.75642948  0.41353607    -0.12200
C816        C  0.26549520  0.73799750  0.41103250     0.04800
C817        C  0.27665422  0.72798726  0.37916684    -0.07500
C818        C  0.25687678  0.73662763  0.35089981    -0.08300
C819        C  0.22591692  0.75557974  0.35337377    -0.02800
C820        C  0.21455729  0.76518591  0.38526182     0.04000
N821        N  0.18383991  0.78482373  0.38933846     0.66500
H822        H  0.22488768  0.76433316  0.43781106     0.15400
H823        H  0.26607709  0.72854564  0.32663607     0.15100
N824        N  0.30707414  0.70783559  0.37513147     0.74200
O825        O  0.15654327  0.77045676  0.39911771    -0.39200
O826        O  0.18492214  0.81695909  0.38672246    -0.39200
O827        O  0.30464209  0.67732797  0.36531398    -0.39900
O828        O  0.33630057  0.72187774  0.37653979    -0.39900
C829        C  0.27806181  0.76138576  0.12018643    -0.12200
C830        C  0.26932107  0.72675887  0.11461201     0.04800
C831        C  0.23876099  0.71390078  0.12856857    -0.07500
C832        C  0.21732374  0.73586297  0.14650661    -0.08300
C833        C  0.22617213  0.77039115  0.15249845    -0.02800
C834        C  0.25648287  0.78352644  0.13802408     0.04000
N835        N  0.26522118  0.81914559  0.14010604     0.66500
H836        H  0.30082184  0.77199932  0.10838581     0.15400
H837        H  0.19422377  0.72512305  0.15754255     0.15100
N838        N  0.22884076  0.67885102  0.12455372     0.74200
O839        O  0.29639891  0.82812019  0.14203422    -0.39200
O840        O  0.24276292  0.84147663  0.13328030    -0.39200
O841        O  0.24888717  0.65542671  0.13432293    -0.39900
O842        O  0.19806349  0.67147312  0.11732003    -0.39900
C843        C  0.09442349  0.88742694  0.18613553    -0.12200
C844        C  0.08590765  0.85744134  0.20396434     0.04800
C845        C  0.05295618  0.84336602  0.20021733    -0.07500
C846        C  0.02958034  0.85867346  0.17800262    -0.08300
C847        C  0.03840369  0.88816237  0.15932753    -0.02800
C848        C  0.07116654  0.90275915  0.16392553     0.04000
N849        N  0.08175623  0.93224548  0.14536079     0.66500
H850        H  0.11988197  0.89852352  0.18874276     0.15400
H851        H  0.00419397  0.84746609  0.17560804     0.15100
N852        N  0.04341514  0.81280321  0.21751050     0.74200
O853        O  0.08791500  0.95990241  0.16032126    -0.39200
O854        O  0.08864828  0.92963004  0.11467205    -0.39200
O855        O  0.02742477  0.81479226  0.24483804    -0.39900
O856        O  0.04532842  0.78444234  0.20277388    -0.39900
C857        C  0.12286604  0.15187152  0.29804275    -0.12200
C858        C  0.10065036  0.16164647  0.32426957     0.04800
C859        C  0.09414443  0.19676142  0.32918107    -0.07500
C860        C  0.10866650  0.22072495  0.30698439    -0.08300
C861        C  0.13064427  0.21059566  0.28084717    -0.02800
C862        C  0.13792459  0.17585511  0.27667535     0.04000
N863        N  0.15919834  0.16440882  0.24986499     0.66500
H864        H  0.12862944  0.12511826  0.29389425     0.15400
H865        H  0.10371003  0.24767508  0.31091139     0.15100
N866        N  0.07298059  0.20865513  0.35603554     0.74200
O867        O  0.18933071  0.15387438  0.25578903    -0.39200
O868        O  0.14650725  0.16100061  0.22100435    -0.39200
O869        O  0.08152277  0.20226904  0.38586960    -0.39900
O870        O  0.05056136  0.23135164  0.35044581    -0.39900
C871        C  0.16664787  0.09810577  0.46181134    -0.12200
C872        C  0.15817632  0.10862072  0.42916953     0.04800
C873        C  0.17362013  0.13870419  0.41618478    -0.07500
C874        C  0.19619454  0.15770695  0.43632001    -0.08300
C875        C  0.20516162  0.14673341  0.46861574    -0.02800
C876        C  0.19024926  0.11650472  0.48136186     0.04000
N877        N  0.19735211  0.09865222  0.01693085     0.66500
H878        H  0.15434531  0.07567151  0.47242396     0.15400
H879        H  0.20865954  0.18007155  0.42572293     0.15100
N880        N  0.16684695  0.15048708  0.38279422     0.74200
O881        O  0.19770041  0.11732262  0.04257184    -0.39200
O882        O  0.20323501  0.06705186  0.01996471    -0.39200
O883        O  0.16169565  0.18191572  0.37748137    -0.39900
O884        O  0.17415191  0.13151419  0.35840956    -0.39900
C885        C  0.99009673  0.01856266  0.03410353    -0.12200
C886        C  0.98701284  0.98246255  0.03496713     0.04800
C887        C  0.99608354  0.96428434  0.00601616    -0.07500
C888        C  0.01929868  0.98333064  0.48484728    -0.08300
C889        C  0.01568268  0.01918359  0.48170383    -0.02800
C890        C  0.00047880  0.03698747  0.50843623     0.04000
N891        N  0.99514238  0.07312923  0.50675617     0.66500
H892        H  0.98323561  0.03355752  0.05577636     0.15400
H893        H  0.03149161  0.96892023  0.46507529     0.15100
N894        N  0.99381519  0.92786170  0.00491525     0.74200
O895        O  0.97209362  0.08518642  0.48776313    -0.39200
O896        O  0.00969722  0.09237539  0.52770287    -0.39200
O897        O  0.96883156  0.91387570  0.99008740    -0.39900
O898        O  0.01902861  0.90991236  0.01446489    -0.39900
C899        C  0.02257582  0.98467587  0.27161879    -0.12200
C900        C  0.01564598  0.01930819  0.27692315     0.04800
C901        C  0.98526809  0.03392081  0.26335095    -0.07500
C902        C  0.96253452  0.01352846  0.24479134    -0.08300
C903        C  0.96979481  0.97900212  0.23901811    -0.02800
C904        C  0.99975574  0.96426833  0.25330861     0.04000
N905        N  0.00729770  0.92859861  0.24903268     0.66500
H906        H  0.04464194  0.97287186  0.28373636     0.15400
H907        H  0.94060701  0.02538122  0.23248996     0.15100
N908        N  0.97766144  0.06956954  0.26778645     0.74200
O909        O  0.03803730  0.91864870  0.24576293    -0.39200
O910        O  0.98347410  0.90670391  0.25084690    -0.39200
O911        O  0.00143708  0.09153263  0.26612318    -0.39900
O912        O  0.94686669  0.07947657  0.27067530    -0.39900
C913        C  0.92351672  0.09451962  0.35747415    -0.12200
C914        C  0.95459919  0.11236430  0.36106094     0.04800
C915        C  0.95924476  0.14304490  0.34220153    -0.07500
C916        C  0.93354465  0.15434973  0.31999373    -0.08300
C917        C  0.90263110  0.13649286  0.31674607    -0.02800
C918        C  0.89766808  0.10626587  0.33576365     0.04000
N919        N  0.86688261  0.08645155  0.33230574     0.66500
H920        H  0.91948037  0.07079368  0.37100751     0.15400
H921        H  0.93724935  0.17798736  0.30620152     0.15100
N922        N  0.98985015  0.16319386  0.34506686     0.74200
O923        O  0.86068209  0.07131743  0.30517387    -0.39200
O924        O  0.84814092  0.08069792  0.35743685    -0.39200
O925        O  0.00792307  0.16890673  0.31946886    -0.39900
O926        O  0.99459171  0.18092819  0.37093888    -0.39900
C927        C  0.11118533  0.89739594  0.33382395    -0.12200
C928        C  0.14183720  0.90231289  0.31559607     0.04800
C929        C  0.15614465  0.93523466  0.31386695    -0.07500
C930        C  0.13973643  0.96247332  0.32992090    -0.08300
C931        C  0.10844295  0.95792893  0.34733662    -0.02800
C932        C  0.09416765  0.92487774  0.34910189     0.04000
N933        N  0.06224701  0.91884783  0.36580399     0.66500
H934        H  0.09948987  0.87226636  0.33496186     0.15400
H935        H  0.15114631  0.98765735  0.32773167     0.15100
N936        N  0.18741896  0.94137591  0.29605424     0.74200
O937        O  0.03431899  0.92091404  0.34969789    -0.39200
O938        O  0.06225812  0.90664494  0.39505150    -0.39200
O939        O  0.18671320  0.95721516  0.26851073    -0.39900
O940        O  0.21598428  0.93411747  0.30943768    -0.39900
C941        C  0.35673528  0.84254596  0.06193348    -0.12200
C942        C  0.38538475  0.83371065  0.08199699     0.04800
C943        C  0.39809888  0.80024197  0.08084095    -0.07500
C944        C  0.38405806  0.77720353  0.05780013    -0.08300
C945        C  0.35692448  0.78677239  0.03600510    -0.02800
C946        C  0.34247691  0.81955602  0.03903043     0.04000
N947        N  0.31448539  0.83047425  0.01815670     0.66500
H948        H  0.34625022  0.86819853  0.06299460     0.15400
H949        H  0.39437576  0.75150903  0.05714343     0.15100
N950        N  0.42590305  0.78965334  0.10191748     0.74200
O951        O  0.28781973  0.84321902  0.03107496    -0.39200
O952        O  0.31766551  0.83042147  0.98676477    -0.39200
O953        O  0.41954028  0.77622098  0.12996582    -0.39900
O954        O  0.45612465  0.78866159  0.09046505    -0.39900
C955        C  0.50311850  0.95789967  0.25323736    -0.12200
C956        C  0.48539120  0.97629423  0.22856256     0.04800
C957        C  0.48164169  0.01227680  0.23281429    -0.07500
C958        C  0.49608019  0.02873284  0.26073449    -0.08300
C959        C  0.51363530  0.01028684  0.28552451    -0.02800
C960        C  0.51736776  0.97430962  0.28121000     0.04000
N961        N  0.53602128  0.95383184  0.30480785     0.66500
H962        H  0.50699753  0.93064377  0.25034059     0.15400
H963        H  0.49205442  0.05594904  0.26375938     0.15100
N964        N  0.46213992  0.03252954  0.20962659     0.74200
O965        O  0.52076608  0.93028954  0.32055810    -0.39200
O966        O  0.56834408  0.95657029  0.30699011    -0.39200
O967        O  0.43021515  0.02742707  0.20623197    -0.39900
O968        O  0.47596230  0.05783173  0.19529405    -0.39900
C969        C  0.46714841  0.00917684  0.02383993    -0.12200
C970        C  0.47034431  0.97356435  0.02596032     0.04800
C971        C  0.49820395  0.95736151  0.00974267    -0.07500
C972        C  0.52068070  0.97302525  0.48840541    -0.08300
C973        C  0.52467887  0.00859318  0.48954941    -0.02800
C974        C  0.49167299  0.02896444  0.00672187     0.04000
N975        N  0.48832698  0.06560466  0.00617334     0.66500
H976        H  0.44705921  0.02186435  0.03786000     0.15400
H977        H  0.53668831  0.95796452  0.47186723     0.15100
N978        N  0.50176017  0.92083475  0.01069614     0.74200
O979        O  0.45902983  0.07940346  0.00845563    -0.39200
O980        O  0.52854535  0.07496081  0.53441960    -0.39200
O981        O  0.47573919  0.90198344  0.00640337    -0.39900
O982        O  0.51513065  0.90196524  0.51763546    -0.39900
C983        C  0.38265487  0.09447927  0.08003153    -0.12200
C984        C  0.35024617  0.08820698  0.06536221     0.04800
C985        C  0.33604538  0.05530405  0.06711935    -0.07500
C986        C  0.35430101  0.02937157  0.08370842    -0.08300
C987        C  0.38691474  0.03547560  0.09828775    -0.02800
C988        C  0.40131434  0.06835265  0.09584722     0.04000
N989        N  0.43472461  0.07562843  0.10912960     0.66500
H990        H  0.39413449  0.11968481  0.07817241     0.15400
H991        H  0.34299903  0.00405533  0.08473861     0.15100
N992        N  0.30295551  0.04807027  0.05290439     0.74200
O993        O  0.46109950  0.06987206  0.09166439    -0.39200
O994        O  0.43748327  0.09341343  0.13521032    -0.39200
O995        O  0.29920084  0.02298928  0.03352156    -0.39900
O996        O  0.27690192  0.06500699  0.06181283    -0.39900
C997        C  0.34835006  0.85603235  0.20647247    -0.12200
C998        C  0.34220494  0.88812485  0.19148541     0.04800
C999        C  0.30943992  0.90286341  0.19385097    -0.07500
C1000       C  0.28341759  0.88559723  0.21113936    -0.08300
C1001       C  0.28909868  0.85301766  0.22550468    -0.02800
C1002       C  0.32193980  0.83808668  0.22276396     0.04000
N1003       N  0.32874783  0.80469809  0.23584411     0.66500
H1004       H  0.37347469  0.84417268  0.20427148     0.15400
H1005       H  0.25819289  0.89739259  0.21230512     0.15100
N1006       N  0.30234715  0.93545010  0.17910551     0.74200
O1007       O  0.32231861  0.77879918  0.21821561    -0.39200
O1008       O  0.34651249  0.80136810  0.26211222    -0.39200
O1009       O  0.28515976  0.93733171  0.15234935    -0.39900
O1010       O  0.31031485  0.96240764  0.19447686    -0.39900
C1011       C  0.53162635  0.84780038  0.09113630    -0.12200
C1012       C  0.53773214  0.88059523  0.10469248     0.04800
C1013       C  0.56768351  0.89832802  0.09481657    -0.07500
C1014       C  0.59101054  0.88286954  0.07306203    -0.08300
C1015       C  0.58533440  0.84985573  0.06050138    -0.02800
C1016       C  0.55516320  0.83235242  0.06931156     0.04000
N1017       N  0.54889798  0.79842558  0.05768958     0.66500
H1018       H  0.50855222  0.83379233  0.09771076     0.15400
H1019       H  0.61437295  0.89652956  0.06650041     0.15100
N1020       N  0.57515150  0.93184242  0.10685795     0.74200
O1021       O  0.56614091  0.77377140  0.06943314    -0.39200
O1022       O  0.52349618  0.79257939  0.03882294    -0.39200
O1023       O  0.59110848  0.93546230  0.13412908    -0.39900
O1024       O  0.56978526  0.95749273  0.08831567    -0.39900
Fe1025     Fe  0.47572033  0.96836920  0.62305693     1.65800
Fe1026     Fe  0.44586037  0.89922565  0.66141094     1.73200
Fe1027     Fe  0.39761155  0.94090164  0.60482572     1.54400
O1028       O  0.39037324  0.98777812  0.62454078    -0.81600
O1029       O  0.41733786  0.86437386  0.63060078    -0.79900
O1030       O  0.44099485  0.00827079  0.60927701    -0.84100
O1031       O  0.47787959  0.95041358  0.57628895    -0.79000
O1032       O  0.36723276  0.91950001  0.64348722    -0.80800
O1033       O  0.48829376  0.88380057  0.63523943    -0.83500
C1034       C  0.45612744  0.96050961  0.55535023     0.97300
C1035       C  0.40833585  0.01158608  0.61236629     1.04700
O1036       O  0.43905990  0.93644612  0.63084029    -1.12500
O1037       O  0.47368264  0.93244832  0.69522494    -0.74900
O1038       O  0.47406911  0.98414687  0.67108590    -0.78400
O1039       O  0.42405683  0.96229813  0.56261549    -0.79100
C1040       C  0.47772344  0.96529647  0.69668638     0.96200
O1041       O  0.51496213  0.93320304  0.63317815    -0.77100
O1042       O  0.40243084  0.91129791  0.68697690    -0.82300
C1043       C  0.40507895  0.86655814  0.60072134     0.98800
C1044       C  0.37265845  0.91088272  0.67401288     1.04700
O1045       O  0.40396548  0.89434536  0.58460844    -0.77900
C1046       C  0.51365195  0.90159710  0.62593426     1.03000
Fe1047     Fe  0.02307980  0.02799156  0.87152499     1.65800
Fe1048     Fe  0.05320448  0.09921671  0.90567295     1.73200
Fe1049     Fe  0.09854519  0.05758992  0.84795116     1.54400
O1050       O  0.11045546  0.01202868  0.86932664    -0.81600
O1051       O  0.07927801  0.13352636  0.87203283    -0.79900
O1052       O  0.05922704  0.98852756  0.86016674    -0.84100
O1053       O  0.01812177  0.04281069  0.82372174    -0.79000
O1054       O  0.13042346  0.08303628  0.88324324    -0.80800
O1055       O  0.00885716  0.11299579  0.88153571    -0.83500
C1056       C  0.03915576  0.03207945  0.80269329     0.97300
C1057       C  0.09219075  0.98629367  0.86213110     1.04700
O1058       O  0.05891461  0.06109924  0.87632029    -1.12500
O1059       O  0.02721429  0.06741162  0.94191138    -0.74900
O1060       O  0.02660800  0.01498205  0.92018519    -0.78400
O1061       O  0.07148784  0.03197685  0.80877217    -0.79100
C1062       C  0.02246534  0.03482153  0.94472814     0.96200
O1063       O  0.98303529  0.06269771  0.88020845    -0.77100
O1064       O  0.09859531  0.08802603  0.92918656    -0.82300
C1065       C  0.08793520  0.13071714  0.84112814     0.98800
C1066       C  0.12711009  0.09092158  0.91412417     1.04700
O1067       O  0.08618553  0.10247600  0.82609968    -0.77900
C1068       C  0.98323730  0.09468035  0.87396616     1.03000
Fe1069     Fe  0.21985574  0.77189549  0.74891917     1.65800
Fe1070     Fe  0.14847475  0.79858724  0.78619134     1.73200
Fe1071     Fe  0.18856951  0.84758007  0.72969872     1.54400
O1072       O  0.23553630  0.85789614  0.74905188    -0.81600
O1073       O  0.11286073  0.82708922  0.75674183    -0.79900
O1074       O  0.25900389  0.80798398  0.73654177    -0.84100
O1075       O  0.20364498  0.76840222  0.70176890    -0.79000
O1076       O  0.16635164  0.87668746  0.76855777    -0.80800
O1077       O  0.13461655  0.75709814  0.75842998    -0.83500
C1078       C  0.21159862  0.79048206  0.68045436     0.97300
C1079       C  0.26099302  0.84052445  0.73949094     1.04700
O1080       O  0.18614717  0.80681799  0.75613107    -1.12500
O1081       O  0.18171826  0.77011830  0.81922385    -0.74900
O1082       O  0.23424841  0.77429575  0.79709188    -0.78400
O1083       O  0.21110823  0.82237202  0.68758025    -0.79100
C1084       C  0.21476529  0.76674810  0.82124620     0.96200
O1085       O  0.18526870  0.73181193  0.75779389    -0.77100
O1086       O  0.15926327  0.84178416  0.81252795    -0.82300
C1087       C  0.11435429  0.83851648  0.72672188     0.98800
C1088       C  0.15844012  0.87133976  0.79927428     1.04700
O1089       O  0.14178062  0.83802767  0.70988963    -0.77900
C1090       C  0.15359078  0.73264246  0.74940311     1.03000
Fe1091     Fe  0.97421667  0.96910513  0.64375771     1.65800
Fe1092     Fe  0.94668430  0.89918031  0.60556266     1.73200
Fe1093     Fe  0.89807955  0.93766386  0.66312730     1.54400
O1094       O  0.92349339  0.96092765  0.70479454    -0.81600
O1095       O  0.90296676  0.91084589  0.58023728    -0.79900
O1096       O  0.97739079  0.95141187  0.69081097    -0.84100
O1097       O  0.93746041  0.00757414  0.65639271    -0.79000
O1098       O  0.90911468  0.89134565  0.68287086    -0.80800
O1099       O  0.97447655  0.93280454  0.57238511    -0.83500
C1100       C  0.90450588  0.00945380  0.65422548     0.97300
C1101       C  0.95568165  0.96114649  0.71165410     1.04700
O1102       O  0.93883495  0.93603964  0.63607270    -1.12500
O1103       O  0.98910257  0.88477135  0.63189333    -0.74900
O1104       O  0.01441970  0.93496359  0.63453652    -0.78400
O1105       O  0.88676368  0.98439169  0.64427230    -0.79100
C1106       C  0.01371638  0.90322332  0.64170839     0.96200
O1107       O  0.97264310  0.98466614  0.59543352    -0.77100
O1108       O  0.91873506  0.86314229  0.63562178    -0.82300
C1109       C  0.87380670  0.90736615  0.59387724     0.98800
C1110       C  0.90801460  0.86421716  0.66595623     1.04700
O1111       O  0.86846164  0.91465734  0.62466927    -0.77900
C1112       C  0.97874017  0.96553917  0.57065749     1.03000
Fe1113     Fe  0.77697934  0.22556265  0.76456882     1.65800
Fe1114     Fe  0.84555320  0.19248232  0.72793561     1.73200
Fe1115     Fe  0.80392161  0.14930359  0.78799978     1.54400
O1116       O  0.78164179  0.17858301  0.82817370    -0.81600
O1117       O  0.83106804  0.14843729  0.70538712    -0.79900
O1118       O  0.79485020  0.23034487  0.81099217    -0.84100
O1119       O  0.73638175  0.19202990  0.77918037    -0.79000
O1120       O  0.85139978  0.15785542  0.80756300    -0.80800
O1121       O  0.81296966  0.21921174  0.69304252    -0.83500
C1122       C  0.73209080  0.15958002  0.77765619     0.97300
C1123       C  0.78220888  0.21105847  0.83252958     1.04700
O1124       O  0.80840625  0.18842532  0.75911156    -1.12500
O1125       O  0.86272462  0.23556914  0.75145317    -0.74900
O1126       O  0.81338037  0.26327066  0.75311743    -0.78400
O1127       O  0.75626452  0.14009521  0.76871809    -0.79100
C1128       C  0.84542052  0.26138213  0.75998012     0.96200
O1129       O  0.76103538  0.22124754  0.71698562    -0.77100
O1130       O  0.88024512  0.16506330  0.75973824    -0.82300
C1131       C  0.83301030  0.11986369  0.72022141     0.98800
C1132       C  0.87893734  0.15662552  0.79078037     1.04700
O1133       O  0.82556588  0.11640289  0.75132605    -0.77900
C1134       C  0.78000004  0.22330057  0.69145085     1.03000
Fe1135     Fe  0.21913177  0.27052952  0.76265039     1.65800
Fe1136     Fe  0.15093241  0.30447157  0.72624122     1.73200
Fe1137     Fe  0.19436328  0.34705205  0.78495674     1.54400
O1138       O  0.21654939  0.31732849  0.82538962    -0.81600
O1139       O  0.16604906  0.34782742  0.70258030    -0.79900
O1140       O  0.20026428  0.26665085  0.80884143    -0.84100
O1141       O  0.26051740  0.30312994  0.77753703    -0.79000
O1142       O  0.14744067  0.33910975  0.80487385    -0.80800
O1143       O  0.18273529  0.27638745  0.69182659    -0.83500
C1144       C  0.26554904  0.33547026  0.77571395     0.97300
C1145       C  0.21495174  0.28484739  0.82992830     1.04700
O1146       O  0.18872321  0.30820153  0.75660476    -1.12500
O1147       O  0.13343751  0.26216136  0.75104096    -0.74900
O1148       O  0.18227237  0.23364490  0.75059599    -0.78400
O1149       O  0.24185434  0.35498530  0.76529831    -0.79100
C1150       C  0.15050524  0.23566759  0.75815587     0.96200
O1151       O  0.23504226  0.27459867  0.71520826    -0.77100
O1152       O  0.11729088  0.33327097  0.75779250    -0.82300
C1153       C  0.16429131  0.37653058  0.71690206     0.98800
C1154       C  0.11976146  0.34250652  0.78850945     1.04700
O1155       O  0.17246090  0.38013042  0.74787948    -0.77900
C1156       C  0.21560839  0.27131493  0.69001129     1.03000
Fe1157     Fe  0.02146839  0.52703091  0.63875734     1.65800
Fe1158     Fe  0.05013221  0.59849662  0.60396336     1.73200
Fe1159     Fe  0.09730626  0.55645494  0.66073352     1.54400
O1160       O  0.07019048  0.53208642  0.70138028    -0.81600
O1161       O  0.09371712  0.58711115  0.57889179    -0.79900
O1162       O  0.01675391  0.54227767  0.68595659    -0.84100
O1163       O  0.05737070  0.48750368  0.65165983    -0.79000
O1164       O  0.08708541  0.60184138  0.68202951    -0.80800
O1165       O  0.02260473  0.56668804  0.56890529    -0.83500
C1166       C  0.09028027  0.48553511  0.64948099     0.97300
C1167       C  0.03774170  0.53193502  0.70746275     1.04700
O1168       O  0.05700166  0.56028927  0.63339713    -1.12500
O1169       O  0.00750108  0.61213274  0.63001508    -0.74900
O1170       O  0.98162341  0.56205822  0.62933755    -0.78400
O1171       O  0.10788216  0.51076797  0.63983840    -0.79100
C1172       C  0.98232548  0.59342008  0.63788875     0.96200
O1173       O  0.02554370  0.51402341  0.59039226    -0.77100
O1174       O  0.07824860  0.63272080  0.63592464    -0.82300
C1175       C  0.12301365  0.58896163  0.59261160     0.98800
C1176       C  0.08877460  0.62984100  0.66634239     1.04700
O1177       O  0.12804796  0.58046121  0.62331880    -0.77900
C1178       C  0.01979296  0.53390261  0.56596641     1.03000
Fe1179     Fe  0.97389866  0.46716692  0.87098004     1.65800
Fe1180     Fe  0.94757316  0.39538007  0.90679361     1.73200
Fe1181     Fe  0.89832108  0.43512017  0.84992279     1.54400
O1182       O  0.88710445  0.48161087  0.86916329    -0.81600
O1183       O  0.92026719  0.35972143  0.87613423    -0.79900
O1184       O  0.93750663  0.50552467  0.85786464    -0.84100
O1185       O  0.97892274  0.45173910  0.82386335    -0.79000
O1186       O  0.86852741  0.41215211  0.88865507    -0.80800
O1187       O  0.99007111  0.38270938  0.87991542    -0.83500
C1188       C  0.95706692  0.45969238  0.80212633     0.97300
C1189       C  0.90468478  0.50723720  0.86033709     1.04700
O1190       O  0.93913377  0.43291860  0.87685310    -1.12500
O1191       O  0.97461030  0.42858373  0.94098371    -0.74900
O1192       O  0.96934608  0.48102165  0.91911580    -0.78400
O1193       O  0.92469236  0.45833537  0.80844357    -0.79100
C1194       C  0.97570820  0.46149096  0.94360011     0.96200
O1195       O  0.01459994  0.43341353  0.88096368    -0.77100
O1196       O  0.90394797  0.40550517  0.93240598    -0.82300
C1197       C  0.90944959  0.36117836  0.84580049     0.98800
C1198       C  0.87428527  0.40396105  0.91932191     1.04700
O1199       O  0.90823881  0.38886151  0.82952365    -0.77900
C1200       C  0.01457561  0.40221526  0.87198161     1.03000
Fe1201     Fe  0.27587304  0.72570114  0.51536018     1.65800
Fe1202     Fe  0.34951325  0.69327391  0.98065657     1.73200
Fe1203     Fe  0.30651031  0.65153596  0.53865671     1.54400
O1204       O  0.28041330  0.67810291  0.57820434    -0.81600
O1205       O  0.33821267  0.64814935  0.95876942    -0.79900
O1206       O  0.29089274  0.73086399  0.56268491    -0.84100
O1207       O  0.23664891  0.68908703  0.52733764    -0.79000
O1208       O  0.35114256  0.66463463  0.56048762    -0.80800
O1209       O  0.31594557  0.71855056  0.94562828    -0.83500
C1210       C  0.23545950  0.65632570  0.52521134     0.97300
C1211       C  0.28032075  0.71022582  0.58416949     1.04700
O1212       O  0.30970775  0.69077439  0.51035673    -1.12500
O1213       O  0.36157278  0.74039717  0.50630073    -0.74900
O1214       O  0.31086426  0.76549515  0.50658336    -0.78400
O1215       O  0.26150168  0.63947947  0.51639593    -0.79100
C1216       C  0.34259645  0.76497966  0.51495903     0.96200
O1217       O  0.26364668  0.71345319  0.96788287    -0.77100
O1218       O  0.38277589  0.67066436  0.51463544    -0.82300
C1219       C  0.34207148  0.62038138  0.97475848     0.98800
C1220       C  0.37947437  0.66178159  0.54547660     1.04700
O1221       O  0.33243036  0.62048990  0.50317060    -0.77900
C1222       C  0.28283214  0.72060532  0.94341396     1.03000
Fe1223     Fe  0.72162242  0.27364027  0.00292308     1.65800
Fe1224     Fe  0.64300816  0.30070823  0.53402607     1.73200
Fe1225     Fe  0.69286263  0.34943768  0.98074543     1.54400
O1226       O  0.73820223  0.35940880  0.00370794    -0.81600
O1227       O  0.61559622  0.33006864  0.00300633    -0.79900
O1228       O  0.75528565  0.30770571  0.48942374    -0.84100
O1229       O  0.70781635  0.26972823  0.95529415    -0.79000
O1230       O  0.66078841  0.37806574  0.51424854    -0.80800
O1231       O  0.62955251  0.25793330  0.50810669    -0.83500
C1232       C  0.72025524  0.29070893  0.93516358     0.97300
C1233       C  0.76383158  0.34216435  0.99452726     1.04700
O1234       O  0.68204296  0.30724282  0.50566907    -1.12500
O1235       O  0.67464378  0.27432194  0.57033164    -0.74900
O1236       O  0.72788467  0.27516871  0.54910160    -0.78400
O1237       O  0.71893914  0.32294181  0.94087141    -0.79100
C1238       C  0.70769879  0.27170629  0.57357012     0.96200
O1239       O  0.68586063  0.23396013  0.01048986    -0.77100
O1240       O  0.65378407  0.34445926  0.55881194    -0.82300
C1241       C  0.61890132  0.34031659  0.97262060     0.98800
C1242       C  0.65166559  0.37338676  0.54480061     1.04700
O1243       O  0.64765790  0.33970548  0.95789860    -0.77900
C1244       C  0.64824195  0.23286713  0.50031316     1.03000
Fe1245     Fe  0.47434724  0.46591102  0.89307222     1.65800
Fe1246     Fe  0.44258688  0.39565576  0.85868017     1.73200
Fe1247     Fe  0.40014137  0.43562790  0.91916299     1.54400
O1248       O  0.42976582  0.45933657  0.95820740    -0.81600
O1249       O  0.39727131  0.40901820  0.83677801    -0.79900
O1250       O  0.48274940  0.45055132  0.94034688    -0.84100
O1251       O  0.43932117  0.50493642  0.90811215    -0.79000
O1252       O  0.41179018  0.38966717  0.93912914    -0.80800
O1253       O  0.46808601  0.42785067  0.82284938    -0.83500
C1254       C  0.40631198  0.50685568  0.90763033     0.97300
C1255       C  0.46249557  0.45978446  0.96284489     1.04700
O1256       O  0.43854208  0.43261949  0.88960300    -1.12500
O1257       O  0.48676367  0.38068118  0.88174090    -0.74900
O1258       O  0.51292266  0.43077996  0.88072350    -0.78400
O1259       O  0.38833847  0.48157600  0.89903935    -0.79100
C1260       C  0.51230747  0.39921872  0.88883574     0.96200
O1261       O  0.46691682  0.47999538  0.84496040    -0.77100
O1262       O  0.41670221  0.36074079  0.89148598    -0.82300
C1263       C  0.36927546  0.40571593  0.85250363     0.98800
C1264       C  0.40888673  0.36239436  0.92263782     1.04700
O1265       O  0.36681305  0.41215425  0.88378140    -0.77900
C1266       C  0.47090657  0.46058628  0.82006479     1.03000
Fe1267     Fe  0.28077102  0.22330649  0.00193347     1.65800
Fe1268     Fe  0.35092050  0.19051816  0.53367712     1.73200
Fe1269     Fe  0.30377051  0.14632085  0.97939702     1.54400
O1270       O  0.25612112  0.13926485  0.99922215    -0.81600
O1271       O  0.38162975  0.15923430  0.00628896    -0.79900
O1272       O  0.24130224  0.19426925  0.48274586    -0.84100
O1273       O  0.29931760  0.22717240  0.95559793    -0.79000
O1274       O  0.32909599  0.11585963  0.50989354    -0.80800
O1275       O  0.36899685  0.23314991  0.51010011    -0.83500
C1276       C  0.28416835  0.20914686  0.93465825     0.97300
C1277       C  0.23279446  0.15957756  0.98961596     1.04700
O1278       O  0.31329936  0.18803714  0.50300035    -1.12500
O1279       O  0.31965817  0.21814482  0.56885305    -0.74900
O1280       O  0.26724872  0.21960098  0.54588042    -0.78400
O1281       O  0.28214475  0.17667327  0.93918145    -0.79100
C1282       C  0.28676038  0.22272916  0.57101295     0.96200
O1283       O  0.31839544  0.25914478  0.01430194    -0.77100
O1284       O  0.33444342  0.14728033  0.55598090    -0.82300
C1285       C  0.37885440  0.14976249  0.97566008     0.98800
C1286       C  0.33659978  0.11901540  0.54109196     1.04700
O1287       O  0.35103501  0.15274376  0.95937166    -0.77900
C1288       C  0.35177666  0.25968460  0.50369501     1.03000
Fe1289     Fe  0.52168279  0.02666224  0.89230522     1.65800
Fe1290     Fe  0.55468842  0.09741819  0.85905424     1.73200
Fe1291     Fe  0.59707575  0.05441971  0.91804161     1.54400
O1292       O  0.56840450  0.02896659  0.95645635    -0.81600
O1293       O  0.60009451  0.08492941  0.83684958    -0.79900
O1294       O  0.51533791  0.04040811  0.94021485    -0.84100
O1295       O  0.55637683  0.98659176  0.90498325    -0.79000
O1296       O  0.58513413  0.09906494  0.93989198    -0.80800
O1297       O  0.52899120  0.06643688  0.82170378    -0.83500
C1298       C  0.58926964  0.98408491  0.90366236     0.97300
C1299       C  0.53594483  0.02960088  0.96192956     1.04700
O1300       O  0.55835349  0.05908004  0.88874355    -1.12500
O1301       O  0.51065746  0.11223070  0.88260664    -0.74900
O1302       O  0.48357111  0.06284756  0.88200478    -0.78400
O1303       O  0.60792048  0.00939273  0.89604542    -0.79100
C1304       C  0.48522217  0.09405016  0.89083548     0.96200
O1305       O  0.52681492  0.01399057  0.84380813    -0.77100
O1306       O  0.58115709  0.13052313  0.89364820    -0.82300
C1307       C  0.62815816  0.08778207  0.85275767     0.98800
C1308       C  0.58900342  0.12715465  0.92485701     1.04700
O1309       O  0.63049555  0.07976635  0.88379272    -0.77900
C1310       C  0.52482306  0.03374580  0.81878538     1.03000
Fe1311     Fe  0.72028153  0.76926822  0.52006438     1.65800
Fe1312     Fe  0.64710034  0.79774391  0.98015147     1.73200
Fe1313     Fe  0.69097942  0.84611189  0.53770581     1.54400
O1314       O  0.71466166  0.82130132  0.57961678    -0.81600
O1315       O  0.65705658  0.84218502  0.95575909    -0.79900
O1316       O  0.70412992  0.76733327  0.56752124    -0.84100
O1317       O  0.75996703  0.80516256  0.53151260    -0.79000
O1318       O  0.64466251  0.83819048  0.55913672    -0.80800
O1319       O  0.67999982  0.77260199  0.94487025    -0.83500
C1320       C  0.76220976  0.83762853  0.52754775     0.97300
C1321       C  0.71415412  0.78962862  0.58762830     1.04700
O1322       O  0.68694144  0.80464604  0.51246739    -1.12500
O1323       O  0.63488763  0.75489993  0.50792697    -0.74900
O1324       O  0.68533674  0.72919696  0.51237742    -0.78400
O1325       O  0.73719163  0.85444816  0.51603504    -0.79100
C1326       C  0.65296114  0.72995960  0.51762490     0.96200
O1327       O  0.73288871  0.77446572  0.96710053    -0.77100
O1328       O  0.61428113  0.82484192  0.51338243    -0.82300
C1329       C  0.65550678  0.87101700  0.96981725     0.98800
C1330       C  0.61650126  0.83653356  0.54332048     1.04700
O1331       O  0.66789378  0.87563133  0.49964192    -0.77900
C1332       C  0.71305656  0.77043502  0.94225685     1.03000
Fe1333     Fe  0.77604313  0.72348073  0.74931136     1.65800
Fe1334     Fe  0.84778155  0.69359077  0.78421399     1.73200
Fe1335     Fe  0.80408479  0.64726160  0.72827856     1.54400
O1336       O  0.75801351  0.63820736  0.74996307    -0.81600
O1337       O  0.88160553  0.66587799  0.75196856    -0.79900
O1338       O  0.73556727  0.68861592  0.73739271    -0.84100
O1339       O  0.79090594  0.72738343  0.70162112    -0.79000
O1340       O  0.82777444  0.61639307  0.76532094    -0.80800
O1341       O  0.86198994  0.73618041  0.75806554    -0.83500
C1342       C  0.78043684  0.70599663  0.68081871     0.97300
C1343       C  0.73287955  0.65608743  0.74020088     1.04700
O1344       O  0.80903655  0.68751162  0.75495178    -1.12500
O1345       O  0.81620031  0.72057960  0.81965403    -0.74900
O1346       O  0.76300185  0.72018943  0.79799628    -0.78400
O1347       O  0.77984478  0.67399139  0.68762807    -0.79100
C1348       C  0.78320176  0.72365122  0.82263396     0.96200
O1349       O  0.81192060  0.76251048  0.75776460    -0.77100
O1350       O  0.83649116  0.64991052  0.80950804    -0.82300
C1351       C  0.87838562  0.65503768  0.72183102     0.98800
C1352       C  0.83662694  0.62077321  0.79588979     1.04700
O1353       O  0.84995859  0.65587463  0.70642364    -0.77900
C1354       C  0.84360956  0.76140567  0.74958504     1.03000
Fe1355     Fe  0.51788120  0.52846900  0.62604071     1.65800
Fe1356     Fe  0.54907690  0.59707274  0.66395489     1.73200
Fe1357     Fe  0.59443202  0.55752459  0.60509050     1.54400
O1358       O  0.60370221  0.51027479  0.62378974    -0.81600
O1359       O  0.57778381  0.63230437  0.63397045    -0.79900
O1360       O  0.55255590  0.48882787  0.61135858    -0.84100
O1361       O  0.51294860  0.54585322  0.57911721    -0.79000
O1362       O  0.62603890  0.57828787  0.64348852    -0.80800
O1363       O  0.50697998  0.61356433  0.63826122    -0.83500
C1364       C  0.53404207  0.53677057  0.55732246     0.97300
C1365       C  0.58547030  0.48606684  0.61295349     1.04700
O1366       O  0.55442565  0.56058008  0.63262033    -1.12500
O1367       O  0.52057183  0.56447705  0.69727948    -0.74900
O1368       O  0.52168686  0.51274092  0.67409872    -0.78400
O1369       O  0.56648389  0.53636667  0.56355923    -0.79100
C1370       C  0.51660932  0.53176648  0.69912753     0.96200
O1371       O  0.47953849  0.56424446  0.63723562    -0.77100
O1372       O  0.59249519  0.58266584  0.68846226    -0.82300
C1373       C  0.58674946  0.63165404  0.60311351     0.98800
C1374       C  0.62171899  0.58469212  0.67467715     1.04700
O1375       O  0.58556182  0.60469353  0.58594627    -0.77900
C1376       C  0.48140189  0.59585541  0.62955460     1.03000
C1377       C  0.64247546  0.62707871  0.71605506    -0.12200
C1378       C  0.65009276  0.59946434  0.69473600     0.04800
C1379       C  0.68463323  0.59019287  0.68978775    -0.07500
C1380       C  0.71075412  0.60901076  0.70537238    -0.08300
C1381       C  0.70329056  0.63742044  0.72569419    -0.02800
C1382       C  0.66869378  0.64664158  0.73083643     0.04000
N1383       N  0.65967206  0.67568338  0.75061000     0.66500
H1384       H  0.61596826  0.63499333  0.71950234     0.15400
H1385       H  0.73728853  0.60157413  0.70115631     0.15100
N1386       N  0.69350629  0.56150430  0.66946145     0.74200
O1387       O  0.66733924  0.70532599  0.74051229    -0.39200
O1388       O  0.63839387  0.67230752  0.77418620    -0.39200
O1389       O  0.71507312  0.56484568  0.64612889    -0.39900
O1390       O  0.68180617  0.53222846  0.67643083    -0.39900
C1391       C  0.65436513  0.68784817  0.56443983    -0.12200
C1392       C  0.63587486  0.70312894  0.53813020     0.04800
C1393       C  0.59992961  0.69725834  0.53594142    -0.07500
C1394       C  0.58343532  0.67660095  0.55977847    -0.08300
C1395       C  0.60193781  0.66153752  0.58610858    -0.02800
C1396       C  0.63777698  0.66734105  0.58838247     0.04000
N1397       N  0.65774111  0.65201539  0.61459730     0.66500
H1398       H  0.68167788  0.69288685  0.56722652     0.15400
H1399       H  0.55631616  0.67073267  0.55664818     0.15100
N1400       N  0.58010529  0.71070003  0.50869094     0.74200
O1401       O  0.68577415  0.63718159  0.60802022    -0.39200
O1402       O  0.64975672  0.65733420  0.64464534    -0.39200
O1403       O  0.58996573  0.70236978  0.97548835    -0.39900
O1404       O  0.55497352  0.73030025  0.51426008    -0.39900
C1405       C  0.71448238  0.73680234  0.88931125    -0.12200
C1406       C  0.73003230  0.76090311  0.91019989     0.04800
C1407       C  0.76418021  0.77171154  0.90283968    -0.07500
C1408       C  0.78214270  0.75753921  0.87568936    -0.08300
C1409       C  0.76656136  0.73338287  0.85482484    -0.02800
C1410       C  0.73236093  0.72279432  0.86214495     0.04000
N1411       N  0.71572506  0.69690733  0.84275906     0.66500
H1412       H  0.68884796  0.72750383  0.89501777     0.15400
H1413       H  0.80772277  0.76687189  0.86982745     0.15100
N1414       N  0.78045213  0.79816765  0.92188352     0.74200
O1415       O  0.72782773  0.66697140  0.84229651    -0.39200
O1416       O  0.68725882  0.70308170  0.82866692    -0.39200
O1417       O  0.81086106  0.79428332  0.93248978    -0.39900
O1418       O  0.76564144  0.82663550  0.92550491    -0.39900
C1419       C  0.76653848  0.77152201  0.61553214    -0.12200
C1420       C  0.73072451  0.77563637  0.61745133     0.04800
C1421       C  0.71135623  0.75314446  0.63761213    -0.07500
C1422       C  0.72784986  0.72587533  0.65403045    -0.08300
C1423       C  0.76365730  0.72143604  0.65172716    -0.02800
C1424       C  0.78302187  0.74448070  0.63214096     0.04000
N1425       N  0.81962136  0.74067375  0.62933866     0.66500
H1426       H  0.78139205  0.78757655  0.59874831     0.15400
H1427       H  0.71310890  0.70984555  0.67092551     0.15100
N1428       N  0.67486956  0.75796774  0.64126712     0.74200
O1429       O  0.83234042  0.71219538  0.62127975    -0.39200
O1430       O  0.83922604  0.76601304  0.63365733    -0.39200
O1431       O  0.65499943  0.73259073  0.64396057    -0.39900
O1432       O  0.66251878  0.78776003  0.64311131    -0.39900
C1433       C  0.61196034  0.89342515  0.93007027    -0.12200
C1434       C  0.64089307  0.89959305  0.95046389     0.04800
C1435       C  0.65330177  0.93305937  0.95382228    -0.07500
C1436       C  0.63676936  0.95970371  0.93697301    -0.08300
C1437       C  0.60707400  0.95387390  0.91747279    -0.02800
C1438       C  0.59449188  0.92035155  0.91422171     0.04000
N1439       N  0.56412812  0.91321700  0.89520987     0.66500
H1440       H  0.60181205  0.86772472  0.92776126     0.15400
H1441       H  0.64655268  0.98542685  0.94029823     0.15100
N1442       N  0.68258145  0.94038339  0.97428403     0.74200
O1443       O  0.56638565  0.89540056  0.86911345    -0.39200
O1444       O  0.53491504  0.91830137  0.90802890    -0.39200
O1445       O  0.71232695  0.94012584  0.96166140    -0.39900
O1446       O  0.68827885  0.95363384  0.49462165    -0.39900
C1447       C  0.44032275  0.14791507  0.95731520    -0.12200
C1448       C  0.40755851  0.13318165  0.95764952     0.04800
C1449       C  0.40077281  0.10487138  0.93666371    -0.07500
C1450       C  0.42593136  0.09339095  0.91437923    -0.08300
C1451       C  0.45827146  0.10907855  0.91268489    -0.02800
C1452       C  0.46558838  0.13644240  0.93495156     0.04000
N1453       N  0.49864263  0.15261222  0.93571260     0.66500
H1454       H  0.44595350  0.16932646  0.97351289     0.15400
H1455       H  0.42027422  0.07160486  0.89866034     0.15100
N1456       N  0.36867259  0.08682228  0.93847329     0.74200
O1457       O  0.50594274  0.17487975  0.91392472    -0.39200
O1458       O  0.51702892  0.15025239  0.96168135    -0.39200
O1459       O  0.35291687  0.07872339  0.91203614    -0.39900
O1460       O  0.35846299  0.07501215  0.96613053    -0.39900
C1461       C  0.50570942  0.47814511  0.73215954    -0.12200
C1462       C  0.50469986  0.51427060  0.73044389     0.04800
C1463       C  0.49099134  0.53203758  0.75789435    -0.07500
C1464       C  0.47938069  0.51391074  0.78605234    -0.08300
C1465       C  0.48070475  0.47780442  0.78792064    -0.02800
C1466       C  0.49366721  0.45997857  0.76016034     0.04000
N1467       N  0.49517783  0.42348709  0.75997131     0.66500
H1468       H  0.51581696  0.46354135  0.71143425     0.15400
H1469       H  0.46925041  0.52854542  0.80674951     0.15100
N1470       N  0.48800826  0.56843092  0.75749543     0.74200
O1471       O  0.46857562  0.40646012  0.75280880    -0.39200
O1472       O  0.52387951  0.40853999  0.76246710    -0.39200
O1473       O  0.46100582  0.58225642  0.74614470    -0.39900
O1474       O  0.51009674  0.58639920  0.77251271    -0.39900
C1475       C  0.46441957  0.50969497  0.49788724    -0.12200
C1476       C  0.47929694  0.47677379  0.99130912     0.04800
C1477       C  0.50988857  0.46272115  0.00518666    -0.07500
C1478       C  0.53019540  0.48854554  0.51819420    -0.08300
C1479       C  0.51833484  0.52085146  0.52760149    -0.02800
C1480       C  0.48519585  0.53170555  0.51673081     0.04000
N1481       N  0.47238574  0.56513954  0.52467089     0.66500
H1482       H  0.43988449  0.51890843  0.48841866     0.15400
H1483       H  0.55498757  0.47259590  0.03515239     0.15100
N1484       N  0.51762434  0.42689618  0.00201430     0.74200
O1485       O  0.49203172  0.59078637  0.52284936    -0.39200
O1486       O  0.44082313  0.56951278  0.53090026    -0.39200
O1487       O  0.54849413  0.41671223  0.00220115    -0.39900
O1488       O  0.49366746  0.40506645  0.00178347    -0.39900
C1489       C  0.41037846  0.30283035  0.94527080    -0.12200
C1490       C  0.39276785  0.33360596  0.94061452     0.04800
C1491       C  0.36151043  0.33909196  0.95783532    -0.07500
C1492       C  0.34895504  0.31444297  0.98002113    -0.08300
C1493       C  0.36647030  0.28358711  0.98515405    -0.02800
C1494       C  0.39749037  0.27775914  0.96716389     0.04000
N1495       N  0.41564150  0.24611176  0.96977680     0.66500
H1496       H  0.43457792  0.29853290  0.93250047     0.15400
H1497       H  0.32478726  0.31924611  0.99265721     0.15100
N1498       N  0.34156710  0.36933070  0.95216977     0.74200
O1499       O  0.41155323  0.22377385  0.94749153    -0.39200
O1500       O  0.43833898  0.25430389  0.50098879    -0.39200
O1501       O  0.32545259  0.37280931  0.92494130    -0.39900
O1502       O  0.33446273  0.38868342  0.97632685    -0.39900
C1503       C  0.59888991  0.38072456  0.92895312    -0.12200
C1504       C  0.59014024  0.35589061  0.95326794     0.04800
C1505       C  0.55539872  0.34579196  0.95618975    -0.07500
C1506       C  0.53091005  0.35940857  0.93389881    -0.08300
C1507       C  0.53999340  0.38384011  0.90941445    -0.02800
C1508       C  0.57431391  0.39468779  0.90728825     0.04000
N1509       N  0.58490723  0.41872414  0.88233942     0.66500
H1510       H  0.62534265  0.38921794  0.92635602     0.15400
H1511       H  0.50422063  0.35168583  0.93656769     0.15100
N1512       N  0.54439416  0.32204935  0.98135350     0.74200
O1513       O  0.59365005  0.44855719  0.89066212    -0.39200
O1514       O  0.58911727  0.40904950  0.85259001    -0.39200
O1515       O  0.54314811  0.33204447  0.51049486    -0.39900
O1516       O  0.52560385  0.29706531  0.97331043    -0.39900
C1517       C  0.58843119  0.42422861  0.59774208    -0.12200
C1518       C  0.60354925  0.45664811  0.59754180     0.04800
C1519       C  0.63542811  0.46123146  0.58069125    -0.07500
C1520       C  0.65078054  0.43387940  0.56384858    -0.08300
C1521       C  0.63574683  0.40144656  0.56418154    -0.02800
C1522       C  0.60456553  0.39645922  0.58211788     0.04000
N1523       N  0.58832360  0.36363329  0.58407082     0.66500
H1524       H  0.56418951  0.42028537  0.61056933     0.15400
H1525       H  0.67457658  0.43806752  0.55031921     0.15100
N1526       N  0.65196494  0.49388556  0.57917670     0.74200
O1527       O  0.60158634  0.34060889  0.60218414    -0.39200
O1528       O  0.55724273  0.36066555  0.57523683    -0.39200
O1529       O  0.68029741  0.49842181  0.59404474    -0.39900
O1530       O  0.64025649  0.51695780  0.56014674    -0.39900
C1531       C  0.64469997  0.17363241  0.98905431    -0.12200
C1532       C  0.63855550  0.20780483  0.98098049     0.04800
C1533       C  0.61607920  0.21570083  0.95387511    -0.07500
C1534       C  0.59974637  0.18928317  0.93614544    -0.08300
C1535       C  0.60561787  0.15501385  0.94441571    -0.02800
C1536       C  0.62850822  0.14734332  0.97135168     0.04000
N1537       N  0.63622651  0.11286899  0.98084084     0.66500
H1538       H  0.66183199  0.16723802  0.00960456     0.15400
H1539       H  0.58289172  0.19556993  0.91536624     0.15100
N1540       N  0.59289049  0.24592006  0.45156289     0.74200
O1541       O  0.62278817  0.10026676  0.00680462    -0.39200
O1542       O  0.66016714  0.09697061  0.96638273    -0.39200
O1543       O  0.61062140  0.26683584  0.43477650    -0.39900
O1544       O  0.56189092  0.25281448  0.45804886    -0.39900
C1545       C  0.40584647  0.56790677  0.92536666    -0.12200
C1546       C  0.38820031  0.53690277  0.92180302     0.04800
C1547       C  0.35454323  0.53385008  0.93562213    -0.07500
C1548       C  0.34008030  0.56101775  0.95335505    -0.08300
C1549       C  0.35779402  0.59179453  0.95663406    -0.02800
C1550       C  0.39071009  0.59543295  0.94204541     0.04000
N1551       N  0.40955978  0.62667717  0.94494680     0.66500
H1552       H  0.43160884  0.57077690  0.91535435     0.15400
H1553       H  0.31469773  0.55817845  0.96427302     0.15100
N1554       N  0.33503423  0.50297145  0.93300142     0.74200
O1555       O  0.43483661  0.62837369  0.96475437    -0.39200
O1556       O  0.40489599  0.65020750  0.92373167    -0.39200
O1557       O  0.33354851  0.48264109  0.95754016    -0.39900
O1558       O  0.31535375  0.49857638  0.90823459    -0.39900
C1559       C  0.46574020  0.63691057  0.58426572    -0.12200
C1560       C  0.45507537  0.61239196  0.60815126     0.04800
C1561       C  0.42014498  0.60354546  0.60990374    -0.07500
C1562       C  0.39655013  0.61960051  0.58862446    -0.08300
C1563       C  0.40696971  0.64433556  0.56485989    -0.02800
C1564       C  0.44209627  0.65243922  0.56229658     0.04000
N1565       N  0.45401189  0.67670638  0.53816638     0.66500
H1566       H  0.49277269  0.64349914  0.58210755     0.15400
H1567       H  0.36961923  0.61263746  0.59087844     0.15100
N1568       N  0.40797750  0.57952176  0.63416421     0.74200
O1569       O  0.44716760  0.70947399  0.04272764    -0.39200
O1570       O  0.48258916  0.67419196  0.01857691    -0.39200
O1571       O  0.39523321  0.59009025  0.66118673    -0.39900
O1572       O  0.40526382  0.54837430  0.62657988    -0.39900
C1573       C  0.85530083  0.53167530  0.82914659    -0.12200
C1574       C  0.88563560  0.53742116  0.84771806     0.04800
C1575       C  0.89821334  0.57092866  0.85066847    -0.07500
C1576       C  0.88060856  0.59787202  0.83497656    -0.08300
C1577       C  0.85088521  0.59195054  0.81551693    -0.02800
C1578       C  0.83794388  0.55843702  0.81283633     0.04000
N1579       N  0.80742339  0.55113505  0.79377252     0.66500
H1580       H  0.84552032  0.50589160  0.82640352     0.15400
H1581       H  0.89112979  0.62345991  0.83686115     0.15100
N1582       N  0.92903155  0.57789626  0.86900884     0.74200
O1583       O  0.80560813  0.52421392  0.77659494    -0.39200
O1584       O  0.78113278  0.56993356  0.79631988    -0.39200
O1585       O  0.95685363  0.58336764  0.85364981    -0.39900
O1586       O  0.92770538  0.58217212  0.90021287    -0.39900
C1587       C  0.82520881  0.34350682  0.97620330    -0.12200
C1588       C  0.79395577  0.36080355  0.98043252     0.04800
C1589       C  0.79012937  0.39384851  0.96573951    -0.07500
C1590       C  0.81602381  0.40719023  0.94506146    -0.08300
C1591       C  0.84667738  0.38930821  0.94022349    -0.02800
C1592       C  0.85163534  0.35766486  0.95681486     0.04000
N1593       N  0.88292041  0.33882330  0.95296951     0.66500
H1594       H  0.82886784  0.31845519  0.98730203     0.15400
H1595       H  0.81246625  0.43198081  0.93333681     0.15100
N1596       N  0.74772281  0.40155645  0.45040678     0.74200
O1597       O  0.90438990  0.33765361  0.97668120    -0.39200
O1598       O  0.88649054  0.31911734  0.92836505    -0.39200
O1599       O  0.73725153  0.42544417  0.46885919    -0.39900
O1600       O  0.74058567  0.42140188  0.94643618    -0.39900
C1601       C  0.89879516  0.60840089  0.68548697    -0.12200
C1602       C  0.90681669  0.63809145  0.70376958     0.04800
C1603       C  0.93975629  0.65243072  0.70061728    -0.07500
C1604       C  0.96340341  0.63783813  0.67839949    -0.08300
C1605       C  0.95511268  0.60865539  0.65930288    -0.02800
C1606       C  0.92244589  0.59367789  0.66345137     0.04000
N1607       N  0.91229906  0.56444839  0.64453936     0.66500
H1608       H  0.87340631  0.59705043  0.68759268     0.15400
H1609       H  0.98870405  0.64922717  0.67650456     0.15100
N1610       N  0.94907033  0.68254627  0.71854629     0.74200
O1611       O  0.90660244  0.53638474  0.65918788    -0.39200
O1612       O  0.90517799  0.56766470  0.61388906    -0.39200
O1613       O  0.95775091  0.68024310  0.74888790    -0.39900
O1614       O  0.95449453  0.71002561  0.70279824    -0.39900
C1615       C  0.98872551  0.51677166  0.47638669    -0.12200
C1616       C  0.98584999  0.47909104  0.97501683     0.04800
C1617       C  0.01377070  0.46806404  0.99473243    -0.07500
C1618       C  0.00349330  0.48096085  0.53462190    -0.08300
C1619       C  0.00821892  0.51687241  0.53431814    -0.02800
C1620       C  0.00066868  0.53469917  0.50452237     0.04000
N1621       N  0.00531493  0.57086053  0.50212375     0.66500
H1622       H  0.94843999  0.51955040  0.96787282     0.15400
H1623       H  0.00869180  0.46620643  0.55706843     0.15100
N1624       N  0.03244614  0.43786700  0.98639766     0.74200
O1625       O  0.03489016  0.58294976  0.49651184    -0.39200
O1626       O  0.97940533  0.59032350  0.50124212    -0.39200
O1627       O  0.05849841  0.44002726  0.96773762    -0.39900
O1628       O  0.02622480  0.41023004  0.00159535    -0.39900
C1629       C  0.00424786  0.46142107  0.76179877    -0.12200
C1630       C  0.97228138  0.47510939  0.77184925     0.04800
C1631       C  0.96430525  0.50911663  0.76299062    -0.07500
C1632       C  0.98908686  0.52890237  0.74629860    -0.08300
C1633       C  0.02125146  0.51536586  0.73660636    -0.02800
C1634       C  0.02905757  0.48127592  0.74523145     0.04000
N1635       N  0.06211799  0.46663454  0.73815716     0.66500
H1636       H  0.01122173  0.43577982  0.76973601     0.15400
H1637       H  0.98221193  0.55462706  0.73856586     0.15100
N1638       N  0.93146326  0.52404131  0.77076392     0.74200
O1639       O  0.08907074  0.48287750  0.74580413    -0.39200
O1640       O  0.06451022  0.43534272  0.73094297    -0.39200
O1641       O  0.92922334  0.55565340  0.77656861    -0.39900
O1642       O  0.90418174  0.50723455  0.76583908    -0.39900
C1643       C  0.18373060  0.58983873  0.57305513    -0.12200
C1644       C  0.15097923  0.60444950  0.57274008     0.04800
C1645       C  0.14522137  0.63471069  0.55391720    -0.07500
C1646       C  0.17263403  0.65078905  0.53741729    -0.08300
C1647       C  0.20576371  0.63678881  0.53856737    -0.02800
C1648       C  0.21094737  0.60529649  0.55583272     0.04000
N1649       N  0.24414778  0.58954599  0.55784597     0.66500
H1650       H  0.18833835  0.56649214  0.58708072     0.15400
H1651       H  0.16816981  0.67478071  0.52444698     0.15100
N1652       N  0.11209995  0.65066773  0.55312951     0.74200
O1653       O  0.26569287  0.59958270  0.57933213    -0.39200
O1654       O  0.25003218  0.56261290  0.54160851    -0.39200
O1655       O  0.10433997  0.67237538  0.57507122    -0.39900
O1656       O  0.09284829  0.64695308  0.52794670    -0.39900
C1657       C  0.29979700  0.38771495  0.78881080    -0.12200
C1658       C  0.29607915  0.35188688  0.79183822     0.04800
C1659       C  0.31677740  0.33444450  0.81573420    -0.07500
C1660       C  0.33833415  0.35324344  0.83711290    -0.08300
C1661       C  0.34097592  0.38888538  0.83447759    -0.02800
C1662       C  0.32212216  0.40606635  0.80965271     0.04000
N1663       N  0.32489249  0.44228907  0.80586698     0.66500
H1664       H  0.28440089  0.40188788  0.77084896     0.15400
H1665       H  0.35446286  0.33972062  0.85497624     0.15100
N1666       N  0.31686934  0.29786043  0.81837556     0.74200
O1667       O  0.34338511  0.45481319  0.78300055    -0.39200
O1668       O  0.30788996  0.46179733  0.82466129    -0.39200
O1669       O  0.32366665  0.28014639  0.79294874    -0.39900
O1670       O  0.31728519  0.28374282  0.84682005    -0.39900
C1671       C  0.26946070  0.25741869  0.65848462    -0.12200
C1672       C  0.23302356  0.25970453  0.65876683     0.04800
C1673       C  0.21489371  0.24880954  0.63028375    -0.07500
C1674       C  0.23297537  0.23595585  0.60280196    -0.08300
C1675       C  0.26940765  0.23381624  0.60245516    -0.02800
C1676       C  0.28754490  0.24452806  0.63099924     0.04000
N1677       N  0.32427094  0.24265053  0.63260685     0.66500
H1678       H  0.28439418  0.26543763  0.67997572     0.15400
H1679       H  0.21802858  0.22790503  0.58132985     0.15100
N1680       N  0.17815427  0.25037448  0.62875532     0.74200
O1681       O  0.34207249  0.26930892  0.62845254    -0.39200
O1682       O  0.33863075  0.21539558  0.64229057    -0.39200
O1683       O  0.16355380  0.27742337  0.61885827    -0.39900
O1684       O  0.16062820  0.22352876  0.63286106    -0.39900
C1685       C  0.23798492  0.28069302  0.88786052    -0.12200
C1686       C  0.23378986  0.26619090  0.85648531     0.04800
C1687       C  0.24602090  0.23227977  0.85088508    -0.07500
C1688       C  0.26100183  0.21349449  0.87691282    -0.08300
C1689       C  0.26521418  0.22796757  0.90829976    -0.02800
C1690       C  0.25294761  0.26191214  0.91398170     0.04000
N1691       N  0.25382493  0.27722559  0.94649394     0.66500
H1692       H  0.22820956  0.30616702  0.89253068     0.15400
H1693       H  0.27069856  0.18800665  0.87214650     0.15100
N1694       N  0.24495953  0.21696945  0.81845196     0.74200
O1695       O  0.26401920  0.30767342  0.94972278    -0.39200
O1696       O  0.23851593  0.26289673  0.97055673    -0.39200
O1697       O  0.26344016  0.22888511  0.79526168    -0.39900
O1698       O  0.22999838  0.18863958  0.81447052    -0.39900
C1699       C  0.10056440  0.38475989  0.83039364    -0.12200
C1700       C  0.09141648  0.35995944  0.80644489     0.04800
C1701       C  0.05658011  0.35088004  0.80300136    -0.07500
C1702       C  0.03218958  0.36458859  0.82507255    -0.08300
C1703       C  0.04172770  0.38826251  0.84997965    -0.02800
C1704       C  0.07618302  0.39894638  0.85194225     0.04000
N1705       N  0.08725576  0.42242101  0.87703378     0.66500
H1706       H  0.12723217  0.39251124  0.83315431     0.15400
H1707       H  0.00545829  0.35702725  0.82239095     0.15100
N1708       N  0.04571631  0.32735889  0.77787980     0.74200
O1709       O  0.08836398  0.41295305  0.90720554    -0.39200
O1710       O  0.10048258  0.45063697  0.86864507    -0.39200
O1711       O  0.03407951  0.29844510  0.78621088    -0.39900
O1712       O  0.04300833  0.33731689  0.74793468    -0.39900
C1713       C  0.13594497  0.46493980  0.68768062    -0.12200
C1714       C  0.10959273  0.45679574  0.66475317     0.04800
C1715       C  0.10283953  0.42232163  0.65778715    -0.07500
C1716       C  0.12252308  0.39679983  0.67365001    -0.08300
C1717       C  0.14810800  0.40491027  0.69758972    -0.02800
C1718       C  0.15470967  0.43949795  0.70447414     0.04000
N1719       N  0.18038749  0.44923726  0.72828500     0.66500
H1720       H  0.14144207  0.49147913  0.69331330     0.15400
H1721       H  0.11653073  0.37031450  0.66832593     0.15100
N1722       N  0.07644772  0.41284667  0.63460616     0.74200
O1723       O  0.21182042  0.44396598  0.72221555    -0.39200
O1724       O  0.17193729  0.46575153  0.75400373    -0.39200
O1725       O  0.08423243  0.39682541  0.60839804    -0.39900
O1726       O  0.04517847  0.41611512  0.64251842    -0.39900
C1727       C  0.69217189  0.15520839  0.82512381    -0.12200
C1728       C  0.70174930  0.14335316  0.79349894     0.04800
C1729       C  0.68837346  0.11179929  0.78228261    -0.07500
C1730       C  0.66583778  0.09304608  0.80285041    -0.08300
C1731       C  0.65709828  0.10448078  0.83494457    -0.02800
C1732       C  0.67074295  0.13595195  0.84614237     0.04000
N1733       N  0.66335418  0.14884023  0.87876852     0.66500
H1734       H  0.70343839  0.17857963  0.83469160     0.15400
H1735       H  0.65453330  0.06961250  0.79347469     0.15100
N1736       N  0.69702551  0.09878527  0.74994803     0.74200
O1737       O  0.67241612  0.13168780  0.90407059    -0.39200
O1738       O  0.65606796  0.18006101  0.88228517    -0.39200
O1739       O  0.70370530  0.06745301  0.74628799    -0.39900
O1740       O  0.69493096  0.11789497  0.72452170    -0.39900
C1741       C  0.77806255  0.25624918  0.63816939    -0.12200
C1742       C  0.76218822  0.23312350  0.65990154     0.04800
C1743       C  0.72709241  0.22427548  0.65423958    -0.07500
C1744       C  0.70875008  0.23915333  0.62751992    -0.08300
C1745       C  0.72471525  0.26221344  0.60569323    -0.02800
C1746       C  0.75972893  0.27125418  0.61165819     0.04000
N1747       N  0.77688366  0.29636804  0.59144364     0.66500
H1748       H  0.80439433  0.26418633  0.64285053     0.15400
H1749       H  0.68247461  0.23113550  0.62270563     0.15100
N1750       N  0.71011587  0.19916660  0.67462355     0.74200
O1751       O  0.76385584  0.32569575  0.58760180    -0.39200
O1752       O  0.80631433  0.29019418  0.57956084    -0.39200
O1753       O  0.67961303  0.20406161  0.68436459    -0.39900
O1754       O  0.72435092  0.17069367  0.68023334    -0.39900
C1755       C  0.72725395  0.27689223  0.87543647    -0.12200
C1756       C  0.73976509  0.27491886  0.90800035     0.04800
C1757       C  0.76491061  0.24981213  0.91621309    -0.07500
C1758       C  0.77686201  0.22712660  0.89196988    -0.08300
C1759       C  0.76417422  0.22892949  0.85946584    -0.02800
C1760       C  0.73937066  0.25435953  0.85111460     0.04000
N1761       N  0.72604544  0.25749291  0.81788537     0.66500
H1762       H  0.70704562  0.29496485  0.86916724     0.15400
H1763       H  0.79681757  0.20881516  0.89833171     0.15100
N1764       N  0.77817509  0.24673023  0.94945933     0.74200
O1765       O  0.69625004  0.24634891  0.81152749    -0.39200
O1766       O  0.74002153  0.27815890  0.79775622    -0.39200
O1767       O  0.76564124  0.22459988  0.96899776    -0.39900
O1768       O  0.80679158  0.26021675  0.95647580    -0.39900
C1769       C  0.84324134  0.30372853  0.80626879    -0.12200
C1770       C  0.86248917  0.28773771  0.78110923     0.04800
C1771       C  0.89859107  0.29313232  0.78040242    -0.07500
C1772       C  0.91427855  0.31499809  0.80372257    -0.08300
C1773       C  0.89484896  0.33118526  0.82852291    -0.02800
C1774       C  0.85904866  0.32507449  0.82985837     0.04000
N1775       N  0.83810176  0.34150937  0.85430739     0.66500
H1776       H  0.81575908  0.29923917  0.80806040     0.15400
H1777       H  0.94155161  0.32051628  0.80154322     0.15100
N1778       N  0.91953743  0.27762061  0.75537101     0.74200
O1779       O  0.82363101  0.36948494  0.84714126    -0.39200
O1780       O  0.82813624  0.32479529  0.87954066    -0.39200
O1781       O  0.91905040  0.28910603  0.72584656    -0.39900
O1782       O  0.94115103  0.25493738  0.76348902    -0.39900
C1783       C  0.81488201  0.90720956  0.56999511    -0.12200
C1784       C  0.84648306  0.89087020  0.57419270     0.04800
C1785       C  0.85112873  0.85755055  0.56138278    -0.07500
C1786       C  0.82372095  0.84079494  0.54555041    -0.08300
C1787       C  0.79180828  0.85697523  0.54141552    -0.02800
C1788       C  0.78761714  0.89083803  0.55368053     0.04000
N1789       N  0.75524723  0.90828892  0.55192165     0.66500
H1790       H  0.81107271  0.93256340  0.58016046     0.15400
H1791       H  0.82733841  0.81488756  0.53675226     0.15100
N1792       N  0.88296522  0.83966531  0.56590892     0.74200
O1793       O  0.73097743  0.89922233  0.57093044    -0.39200
O1794       O  0.75316224  0.93641456  0.53646948    -0.39200
O1795       O  0.88386132  0.81313713  0.58396463    -0.39900
O1796       O  0.90828060  0.84664227  0.54737149    -0.39900
C1797       C  0.85812221  0.84194098  0.69711698    -0.12200
C1798       C  0.89022413  0.83518081  0.68231956     0.04800
C1799       C  0.90661748  0.80396955  0.68940877    -0.07500
C1800       C  0.89142445  0.78122379  0.71231424    -0.08300
C1801       C  0.85965374  0.78831417  0.72801135    -0.02800
C1802       C  0.84273604  0.81914564  0.71968399     0.04000
N1803       N  0.81072212  0.82836530  0.73479422     0.66500
H1804       H  0.84534899  0.86636687  0.69212833     0.15400
H1805       H  0.90464470  0.75701301  0.71741904     0.15100
N1806       N  0.93898297  0.79560739  0.67447935     0.74200
O1807       O  0.80959069  0.83482121  0.76564504    -0.39200
O1808       O  0.78476144  0.83455209  0.71668093    -0.39200
O1809       O  0.96360544  0.78520923  0.69251237    -0.39900
O1810       O  0.94164596  0.79435687  0.64308741    -0.39900
C1811       C  0.85615142  0.03131745  0.68848881    -0.12200
C1812       C  0.88550439  0.03855917  0.66894951     0.04800
C1813       C  0.89647181  0.07260132  0.66578904    -0.07500
C1814       C  0.87770640  0.09867471  0.68131884    -0.08300
C1815       C  0.84869924  0.09138771  0.70131182    -0.02800
C1816       C  0.83788233  0.05726704  0.70483340     0.04000
N1817       N  0.80815064  0.04867677  0.72426712     0.66500
H1818       H  0.84757801  0.00510747  0.69152734     0.15400
H1819       H  0.88685590  0.12476006  0.67893687     0.15100
N1820       N  0.92660185  0.08106984  0.64707959     0.74200
O1821       O  0.77949118  0.06247262  0.71778232    -0.39200
O1822       O  0.80975515  0.02511379  0.74587943    -0.39200
O1823       O  0.92363519  0.09401850  0.61827335    -0.39900
O1824       O  0.95573939  0.08033330  0.66112945    -0.39900
C1825       C  0.11087767  0.71567139  0.70573013    -0.12200
C1826       C  0.13829077  0.70625789  0.72721127     0.04800
C1827       C  0.15106726  0.67268364  0.72560900    -0.07500
C1828       C  0.13506001  0.64892691  0.70463193    -0.08300
C1829       C  0.10654061  0.65783696  0.68443820    -0.02800
C1830       C  0.09518522  0.69191508  0.68427967     0.04000
N1831       N  0.06695871  0.70245073  0.66370980     0.66500
H1832       H  0.10137117  0.74175107  0.70567536     0.15400
H1833       H  0.14476214  0.62290521  0.70456006     0.15100
N1834       N  0.17943670  0.66192592  0.74591872     0.74200
O1835       O  0.03658389  0.69503242  0.67216886    -0.39200
O1836       O  0.07193912  0.72331557  0.64006447    -0.39200
O1837       O  0.17418395  0.65143120  0.77533650    -0.39900
O1838       O  0.20891387  0.65867995  0.73310157    -0.39900
C1839       C  0.28301495  0.73216206  0.88186081    -0.12200
C1840       C  0.26529982  0.73245429  0.91221742     0.04800
C1841       C  0.23026509  0.74336055  0.91224026    -0.07500
C1842       C  0.21405524  0.75330661  0.88240686    -0.08300
C1843       C  0.23187788  0.75339612  0.85210773    -0.02800
C1844       C  0.26678894  0.74211195  0.85202638     0.04000
N1845       N  0.28609689  0.73965042  0.82174189     0.66500
H1846       H  0.30952438  0.72347651  0.88106174     0.15400
H1847       H  0.18758313  0.76209280  0.88324226     0.15100
N1848       N  0.21092726  0.74585876  0.94252036     0.74200
O1849       O  0.31074152  0.75996893  0.81640157    -0.39200
O1850       O  0.28172579  0.71435205  0.80275614    -0.39200
O1851       O  0.21668967  0.77008393  0.96248090    -0.39900
O1852       O  0.18552429  0.72635075  0.94740220    -0.39900
C1853       C  0.27923831  0.75758140  0.62386349    -0.12200
C1854       C  0.26406529  0.72665803  0.61327377     0.04800
C1855       C  0.22921782  0.72045296  0.62111846    -0.07500
C1856       C  0.21055938  0.74539979  0.63848258    -0.08300
C1857       C  0.22595625  0.77597827  0.64957597    -0.02800
C1858       C  0.26048773  0.78259744  0.64100708     0.04000
N1859       N  0.27690533  0.81434108  0.64949359     0.66500
H1860       H  0.30546593  0.76338613  0.61646418     0.15400
H1861       H  0.18438194  0.73958628  0.64605363     0.15100
N1862       N  0.21230632  0.68923064  0.61185758     0.74200
O1863       O  0.30887093  0.81517114  0.65535519    -0.39200
O1864       O  0.26098034  0.84216457  0.64527583    -0.39200
O1865       O  0.22705643  0.66093235  0.61696243    -0.39900
O1866       O  0.18056298  0.68943163  0.60491058    -0.39900
C1867       C  0.09125140  0.88948840  0.69883505    -0.12200
C1868       C  0.08520318  0.85615454  0.71070413     0.04800
C1869       C  0.05559316  0.83862970  0.70028367    -0.07500
C1870       C  0.03358900  0.85404847  0.67676372    -0.08300
C1871       C  0.04008628  0.88717550  0.66385992    -0.02800
C1872       C  0.06915477  0.90512026  0.67569122     0.04000
N1873       N  0.07740811  0.93863611  0.66371203     0.66500
H1874       H  0.11443645  0.90290262  0.70640361     0.15400
H1875       H  0.01082806  0.84008571  0.66907720     0.15100
N1876       N  0.04814538  0.80494845  0.71251207     0.74200
O1877       O  0.07875603  0.96332106  0.68385610    -0.39200
O1878       O  0.08808691  0.94262559  0.63418194    -0.39200
O1879       O  0.04635469  0.79943215  0.74356818    -0.39900
O1880       O  0.03969772  0.78160783  0.69244187    -0.39900
C1881       C  0.12985864  0.15005830  0.79860324    -0.12200
C1882       C  0.10389261  0.15903198  0.82161184     0.04800
C1883       C  0.09288870  0.19326789  0.82280672    -0.07500
C1884       C  0.10739094  0.21733189  0.80069096    -0.08300
C1885       C  0.13338102  0.20819344  0.77774252    -0.02800
C1886       C  0.14451765  0.17397941  0.77671899     0.04000
N1887       N  0.16953744  0.16274251  0.75280081     0.66500
H1888       H  0.13855393  0.12377900  0.79716348     0.15400
H1889       H  0.09898948  0.24369485  0.80226565     0.15100
N1890       N  0.06664647  0.20392635  0.84553677     0.74200
O1891       O  0.19267420  0.14175754  0.76137457    -0.39200
O1892       O  0.16587672  0.17020376  0.72225757    -0.39200
O1893       O  0.07267374  0.20393366  0.87654615    -0.39900
O1894       O  0.04024864  0.21912107  0.83451795    -0.39900
C1895       C  0.16481639  0.09491071  0.96443029    -0.12200
C1896       C  0.15570761  0.10734671  0.93263159     0.04800
C1897       C  0.16930452  0.13903759  0.92186280    -0.07500
C1898       C  0.19139878  0.15748202  0.94285318    -0.08300
C1899       C  0.20170913  0.14444428  0.97403474    -0.02800
C1900       C  0.18803860  0.11279115  0.98499636     0.04000
N1901       N  0.19858027  0.10445651  0.51426528     0.66500
H1902       H  0.15351387  0.07127481  0.97344686     0.15400
H1903       H  0.20255628  0.18108599  0.93355189     0.15100
N1904       N  0.16118578  0.15286231  0.88960206     0.74200
O1905       O  0.19523170  0.12397101  0.53907018    -0.39200
O1906       O  0.20735086  0.07372099  0.51884485    -0.39200
O1907       O  0.15112029  0.18344620  0.88703291    -0.39900
O1908       O  0.17153082  0.13754746  0.86383881    -0.39900
C1909       C  0.98896557  0.01894400  0.53682423    -0.12200
C1910       C  0.99192193  0.98296681  0.53964249     0.04800
C1911       C  0.00805053  0.96529235  0.51330570    -0.07500
C1912       C  0.00774865  0.98193705  0.97757183    -0.08300
C1913       C  0.01071303  0.01803624  0.97661018    -0.02800
C1914       C  0.00148999  0.03628017  0.00550234     0.04000
N1915       N  0.00281965  0.07278051  0.00620062     0.66500
H1916       H  0.97682569  0.03340742  0.55658886     0.15400
H1917       H  0.01454235  0.96684490  0.95594179     0.15100
N1918       N  0.01443703  0.92929262  0.51536760     0.74200
O1919       O  0.97919684  0.09000214  0.99240425    -0.39200
O1920       O  0.02460517  0.08759769  0.02456496    -0.39200
O1921       O  0.00497380  0.91002456  0.49186503    -0.39900
O1922       O  0.03431897  0.91769194  0.53772413    -0.39900
C1923       C  0.01985725  0.97861650  0.77809196    -0.12200
C1924       C  0.02326148  0.01414249  0.77473771     0.04800
C1925       C  0.00030621  0.03204464  0.75371552    -0.07500
C1926       C  0.97419741  0.01445339  0.73683791    -0.08300
C1927       C  0.97072081  0.97889430  0.74019405    -0.02800
C1928       C  0.99389275  0.96098896  0.76103747     0.04000
N1929       N  0.99144324  0.92471489  0.76464285     0.66500
H1930       H  0.03620625  0.96472233  0.79553664     0.15400
H1931       H  0.95804987  0.02835353  0.71922801     0.15100
N1932       N  0.00403286  0.06804433  0.74863852     0.74200
O1933       O  0.01259374  0.90557424  0.74985798    -0.39200
O1934       O  0.97061297  0.91204066  0.78544511    -0.39200
O1935       O  0.02025188  0.07907843  0.72351775    -0.39900
O1936       O  0.98932197  0.08881712  0.76792137    -0.39900
C1937       C  0.93755177  0.09128809  0.83039366    -0.12200
C1938       C  0.95459531  0.11077301  0.85476601     0.04800
C1939       C  0.94810672  0.14642878  0.85610017    -0.07500
C1940       C  0.92548486  0.16162911  0.83288531    -0.08300
C1941       C  0.90899419  0.14210841  0.80834812    -0.02800
C1942       C  0.91500645  0.10661244  0.80734925     0.04000
N1943       N  0.89757395  0.08562789  0.78356260     0.66500
H1944       H  0.94257826  0.06411998  0.82843494     0.15400
H1945       H  0.91942155  0.18857788  0.83503137     0.15100
N1946       N  0.96297596  0.16724977  0.88176997     0.74200
O1947       O  0.90975416  0.08248332  0.75454732    -0.39200
O1948       O  0.87358039  0.06613083  0.79303809    -0.39200
O1949       O  0.97508063  0.19632137  0.87464528    -0.39900
O1950       O  0.96036237  0.15839770  0.91204410    -0.39900
C1951       C  0.11304958  0.89490138  0.83625141    -0.12200
C1952       C  0.14443560  0.89977474  0.81929565     0.04800
C1953       C  0.15934703  0.93249747  0.81861179    -0.07500
C1954       C  0.14251612  0.95970621  0.83429857    -0.08300
C1955       C  0.11057623  0.95522911  0.85051124    -0.02800
C1956       C  0.09590711  0.92231886  0.85148170     0.04000
N1957       N  0.06345989  0.91644384  0.86727881     0.66500
H1958       H  0.10101677  0.86990235  0.83646400     0.15400
H1959       H  0.15411772  0.98485387  0.83277776     0.15100
N1960       N  0.19141369  0.93850460  0.80192666     0.74200
O1961       O  0.03700085  0.91079581  0.84976469    -0.39200
O1962       O  0.06185753  0.91371820  0.89867202    -0.39200
O1963       O  0.19408943  0.96259169  0.78099068    -0.39900
O1964       O  0.21764157  0.92097922  0.80945178    -0.39900
C1965       C  0.35399934  0.84034476  0.57462198    -0.12200
C1966       C  0.38897236  0.83731630  0.58347656     0.04800
C1967       C  0.40853571  0.81078536  0.56959245    -0.07500
C1968       C  0.39294230  0.78803358  0.54707860    -0.08300
C1969       C  0.35813356  0.79169683  0.53702095    -0.02800
C1970       C  0.33853961  0.81817453  0.55152915     0.04000
N1971       N  0.30321783  0.82353085  0.54265352     0.66500
H1972       H  0.33891463  0.86125824  0.58458900     0.15400
H1973       H  0.40862283  0.76774166  0.53683716     0.15100
N1974       N  0.44460094  0.80774239  0.57655480     0.74200
O1975       O  0.28014509  0.82138120  0.56471748    -0.39200
O1976       O  0.29565215  0.83508939  0.51405216    -0.39200
O1977       O  0.45706688  0.77920249  0.58507602    -0.39900
O1978       O  0.46458361  0.83235817  0.57019021    -0.39900
C1979       C  0.50608482  0.96462716  0.75332200    -0.12200
C1980       C  0.48868658  0.98293753  0.72833393     0.04800
C1981       C  0.48476339  0.01890000  0.73265492    -0.07500
C1982       C  0.49829398  0.03535482  0.76109201    -0.08300
C1983       C  0.51544871  0.01694073  0.78622212    -0.02800
C1984       C  0.51966840  0.98103819  0.78165923     0.04000
N1985       N  0.53829384  0.96065632  0.80536478     0.66500
H1986       H  0.51019416  0.93740420  0.75043098     0.15400
H1987       H  0.49398950  0.06252715  0.76413989     0.15100
N1988       N  0.46589775  0.03911723  0.70900269     0.74200
O1989       O  0.52307351  0.93714275  0.82118745    -0.39200
O1990       O  0.57056194  0.96371442  0.80786913    -0.39200
O1991       O  0.43350869  0.03671519  0.70750402    -0.39900
O1992       O  0.48109808  0.06202140  0.69232957    -0.39900
C1993       C  0.47564667  0.01194994  0.52703162    -0.12200
C1994       C  0.47143468  0.97635263  0.52580610     0.04800
C1995       C  0.49439490  0.95684772  0.50639151    -0.07500
C1996       C  0.52269966  0.97704741  0.99258775    -0.08300
C1997       C  0.51958193  0.01266870  0.99057930    -0.02800
C1998       C  0.50232655  0.02800348  0.50953519     0.04000
N1999       N  0.50739682  0.06400614  0.51300368     0.66500
H2000       H  0.45980193  0.02704366  0.54365927     0.15400
H2001       H  0.54282711  0.96425445  0.97868738     0.15100
N2002       N  0.49155624  0.92042255  0.50540435     0.74200
O2003       O  0.49450871  0.08445244  0.49195905    -0.39200
O2004       O  0.51483124  0.08431916  0.00619252    -0.39200
O2005       O  0.46690920  0.90671038  0.48982282    -0.39900
O2006       O  0.53114042  0.90731214  0.01369573    -0.39900
C2007       C  0.38446072  0.09867419  0.57670556    -0.12200
C2008       C  0.35327437  0.09115958  0.56014493     0.04800
C2009       C  0.33996746  0.05787420  0.56178396    -0.07500
C2010       C  0.35811622  0.03275201  0.57975747    -0.08300
C2011       C  0.38970135  0.04008368  0.59585455    -0.02800
C2012       C  0.40316611  0.07331588  0.59362341     0.04000
N2013       N  0.43577635  0.08166580  0.60809158     0.66500
H2014       H  0.39518675  0.12423280  0.57523699     0.15400
H2015       H  0.34756029  0.00712060  0.58080905     0.15100
N2016       N  0.30765266  0.04956566  0.54648475     0.74200
O2017       O  0.46281888  0.07853377  0.59094229    -0.39200
O2018       O  0.43691828  0.09778577  0.63529405    -0.39200
O2019       O  0.30490828  0.02318476  0.52865559    -0.39900
O2020       O  0.28107813  0.06673887  0.55330902    -0.39900
C2021       C  0.35154956  0.86701082  0.71408760    -0.12200
C2022       C  0.34446718  0.89610152  0.69424350     0.04800
C2023       C  0.31033190  0.90768504  0.69144375    -0.07500
C2024       C  0.28396905  0.88968817  0.70755807    -0.08300
C2025       C  0.29080007  0.85978868  0.72625272    -0.02800
C2026       C  0.32500468  0.84859052  0.72965416     0.04000
N2027       N  0.33315382  0.81866236  0.74868174     0.66500
H2028       H  0.37769518  0.85751232  0.71622289     0.15400
H2029       H  0.25771959  0.89867504  0.70457439     0.15100
N2030       N  0.30209673  0.93773534  0.67253219     0.74200
O2031       O  0.33349366  0.78986025  0.73464047    -0.39200
O2032       O  0.34509117  0.82161412  0.77788462    -0.39200
O2033       O  0.28146744  0.93599153  0.64817019    -0.39900
O2034       O  0.31308273  0.96649652  0.68192670    -0.39900
C2035       C  0.53891921  0.84939897  0.59914713    -0.12200
C2036       C  0.54058187  0.88502800  0.60479226     0.04800
C2037       C  0.56554386  0.90417947  0.58715411    -0.07500
C2038       C  0.58822377  0.88770718  0.56534483    -0.08300
C2039       C  0.58693594  0.85222335  0.56042301    -0.02800
C2040       C  0.56198274  0.83281225  0.57749211     0.04000
N2041       N  0.56043733  0.79633952  0.57408571     0.66500
H2042       H  0.52000247  0.83404474  0.61222945     0.15400
H2043       H  0.60790609  0.90271088  0.55286839     0.15100
N2044       N  0.56842400  0.94035665  0.59102745     0.74200
O2045       O  0.58726874  0.77843271  0.57761909    -0.39200
O2046       O  0.53171778  0.78167366  0.57054280    -0.39200
O2047       O  0.58746663  0.95229857  0.61375298    -0.39900
O2048       O  0.55680514  0.96003161  0.56859546    -0.39900
loop_ 
_geom_bond_atom_site_label_1 
_geom_bond_atom_site_label_2 
_geom_bond_distance 
_geom_bond_site_symmetry_2 
_ccdc_geom_bond_type 
Fe1          O17   2.086       .  S
Fe1           O7   2.008       .  S
Fe1          O14   2.013       .  S
Fe1           O6   2.131   1_565  S
Fe1          O12   1.913       .  S
Fe2           O5   2.146       .  S
Fe2           O9   2.040       .  S
Fe2          O13   2.161       .  S
Fe2          O18   2.026       .  S
Fe2          O12   1.917       .  S
Fe3          O21   2.007       .  S
Fe3           O8   2.122       .  S
Fe3          O15   2.147       .  S
Fe3           O4   2.018       .  S
Fe3          O12   1.912       .  S
O4           C11   1.261   1_565  A
O5           C19   1.287       .  A
O6           C11   1.282       .  A
O7           C10   1.251       .  A
O8           C20   1.283       .  A
O9           C22   1.261       .  A
C10          O15   1.281       .  A
C10         C970   1.467       .  S
C11         C987   1.480       .  S
O13          C16   1.295       .  A
O14          C16   1.265       .  A
C16         C956   1.500       .  S
O17          C22   1.272       .  A
O18          C20   1.265       .  A
C19          O21   1.261       .  A
C19         C942   1.479       .  S
C20         C998   1.473       .  S
C22        C1012   1.490       .  S
Fe23         O39   2.101   1_455  S
Fe23         O29   2.010       .  S
Fe23         O36   2.025       .  S
Fe23         O28   2.141   1_545  S
Fe23         O34   1.910       .  S
Fe24         O27   2.144       .  S
Fe24         O31   2.034       .  S
Fe24         O35   2.153       .  S
Fe24         O40   2.038       .  S
Fe24         O34   1.921       .  S
Fe25         O43   2.016       .  S
Fe25         O30   2.128       .  S
Fe25         O37   2.132       .  S
Fe25         O26   2.024       .  S
Fe25         O34   1.914       .  S
O26          C33   1.266   1_545  A
O27          C41   1.284       .  A
O28          C33   1.286       .  A
O29          C32   1.251       .  A
O30          C42   1.282       .  A
O31          C44   1.261   1_455  A
C32          O37   1.278       .  A
C32         C900   1.466       .  S
C33         C931   1.490       .  S
O35          C38   1.291       .  A
O36          C38   1.266       .  A
C38         C889   1.503       .  S
O39          C44   1.278       .  A
O40          C42   1.268       .  A
C41          O43   1.261       .  A
C41         C858   1.487       .  S
C42         C872   1.484       .  S
C44         C914   1.494       .  S
Fe45         O61   2.088       .  S
Fe45         O51   1.999       .  S
Fe45         O58   2.003       .  S
Fe45         O50   2.136       .  S
Fe45         O56   1.915       .  S
Fe46         O49   2.138       .  S
Fe46         O53   2.049       .  S
Fe46         O57   2.165       .  S
Fe46         O62   2.038       .  S
Fe46         O56   1.913       .  S
Fe47         O65   2.008       .  S
Fe47         O52   2.122       .  S
Fe47         O59   2.151       .  S
Fe47         O48   2.019       .  S
Fe47         O56   1.913       .  S
O48          C55   1.261       .  A
O49          C63   1.286       .  A
O50          C55   1.282       .  A
O51          C54   1.249       .  A
O52          C64   1.283       .  A
O53          C66   1.261       .  A
C54          O59   1.281       .  A
C54         C833   1.484       .  S
C55        C1001   1.482       .  S
O57          C60   1.296       .  A
O58          C60   1.266       .  A
C60         C819   1.492       .  S
O61          C66   1.271       .  A
O62          C64   1.268       .  A
C63          O65   1.262       .  A
C63         C844   1.474       .  S
C64         C928   1.483       .  S
C66         C802   1.484       .  S
Fe67         O83   2.021       .  S
Fe67         O73   2.132   1_565  S
Fe67         O80   2.093   1_655  S
Fe67         O72   2.006       .  S
Fe67         O78   1.915       .  S
Fe68         O71   2.023       .  S
Fe68         O75   2.156       .  S
Fe68         O79   2.025       .  S
Fe68         O84   2.153       .  S
Fe68         O78   1.918       .  S
Fe69         O87   2.124       .  S
Fe69         O74   2.011       .  S
Fe69         O81   2.019       .  S
Fe69         O70   2.140       .  S
Fe69         O78   1.914       .  S
O70          C77   1.281       .  A
O71          C85   1.263       .  A
O72          C77   1.253       .  A
O73          C76   1.282       .  A
O74          C86   1.261       .  A
O75          C88   1.293       .  A
C76          O81   1.261   1_545  A
C76         C788   1.472       .  S
C77         C903   1.467       .  S
O79          C82   1.260   1_655  A
O80          C82   1.275       .  A
C82         C847   1.482       .  S
O83          C88   1.266       .  A
O84          C86   1.287       .  A
C85          O87   1.283       .  A
C85         C760   1.470       .  S
C86         C774   1.484       .  S
C88         C886   1.504       .  S
Fe89        O105   2.001       .  S
Fe89         O95   2.127       .  S
Fe89        O102   2.093       .  S
Fe89         O94   1.989       .  S
Fe89        O100   1.909       .  S
Fe90         O93   2.024       .  S
Fe90         O97   2.150       .  S
Fe90        O101   2.041       .  S
Fe90        O106   2.142       .  S
Fe90        O100   1.909       .  S
Fe91        O109   2.126       .  S
Fe91         O96   2.017       .  S
Fe91        O103   2.033       .  S
Fe91         O92   2.161       .  S
Fe91        O100   1.923       .  S
O92          C99   1.284       .  A
O93         C107   1.263       .  A
O94          C99   1.245       .  A
O95          C98   1.281       .  A
O96         C108   1.265       .  A
O97         C110   1.291       .  A
C98         O103   1.260       .  A
C98         C704   1.479       .  S
C99         C735   1.463       .  S
O101        C104   1.261       .  A
O102        C104   1.274       .  A
C104        C746   1.485       .  S
O105        C110   1.262       .  A
O106        C108   1.288       .  A
C107        O109   1.283       .  A
C107        C791   1.487       .  S
C108        C917   1.480       .  S
C110        C718   1.482       .  S
Fe111       O127   1.996       .  S
Fe111       O117   2.142       .  S
Fe111       O124   2.091       .  S
Fe111       O116   1.995       .  S
Fe111       O122   1.901       .  S
Fe112       O115   2.023       .  S
Fe112       O119   2.158       .  S
Fe112       O123   2.036       .  S
Fe112       O128   2.142       .  S
Fe112       O122   1.908       .  S
Fe113       O131   2.131       .  S
Fe113       O118   2.015       .  S
Fe113       O125   2.025       .  S
Fe113       O114   2.166       .  S
Fe113       O122   1.914       .  S
O114        C121   1.283       .  A
O115        C129   1.266       .  A
O116        C121   1.242       .  A
O117        C120   1.284       .  A
O118        C130   1.264       .  A
O119        C132   1.294       .  A
C120        O125   1.263       .  A
C120        C634   1.493       .  S
C121        C662   1.479       .  S
O123        C126   1.259       .  A
O124        C126   1.272       .  A
C126        C861   1.476       .  S
O127        C132   1.263       .  A
O128        C130   1.286       .  A
C129        O131   1.286       .  A
C129        C693   1.479       .  S
C130        C676   1.477       .  S
C132        C648   1.492       .  S
Fe133       O149   2.009       .  S
Fe133       O139   2.139       .  S
Fe133       O146   2.101   1_455  S
Fe133       O138   1.993       .  S
Fe133       O144   1.914       .  S
Fe134       O137   2.027       .  S
Fe134       O141   2.161       .  S
Fe134       O145   2.028       .  S
Fe134       O150   2.153       .  S
Fe134       O144   1.918       .  S
Fe135       O153   2.123       .  S
Fe135       O140   2.013       .  S
Fe135       O147   2.017       .  S
Fe135       O136   2.151       .  S
Fe135       O144   1.908       .  S
O136        C143   1.282       .  A
O137        C151   1.265       .  A
O138        C143   1.251       .  A
O139        C142   1.283       .  A
O140        C152   1.262       .  A
O141        C154   1.293       .  A
C142        O147   1.259       .  A
C142        C690   1.477       .  S
C143        C609   1.478       .  S
O145        C148   1.260   1_455  A
O146        C148   1.277       .  A
C148        C581   1.488       .  S
O149        C154   1.263       .  A
O150        C152   1.288       .  A
C151        O153   1.283       .  A
C151        C620   1.478       .  S
C152        C805   1.490       .  S
C154        C595   1.487       .  S
Fe155       O171   2.088   1_655  S
Fe155       O161   1.997       .  S
Fe155       O168   2.018       .  S
Fe155       O160   2.119       .  S
Fe155       O166   1.918       .  S
Fe156       O159   2.133       .  S
Fe156       O163   2.038       .  S
Fe156       O167   2.151       .  S
Fe156       O172   2.030       .  S
Fe156       O166   1.921       .  S
Fe157       O175   2.028       .  S
Fe157       O162   2.127       .  S
Fe157       O169   2.141       .  S
Fe157       O158   2.029       .  S
Fe157       O166   1.917       .  S
O158        C165   1.264       .  A
O159        C173   1.282       .  A
O160        C165   1.280       .  A
O161        C164   1.252       .  A
O162        C174   1.285       .  A
O163        C176   1.261   1_655  A
C164        O169   1.281       .  A
C164        C606   1.475       .  S
C165        C550   1.480       .  S
O167        C170   1.291       .  A
O168        C170   1.265       .  A
C170        C592   1.501       .  S
O171        C176   1.273       .  A
O172        C174   1.267       .  A
C173        O175   1.262       .  A
C173        C749   1.473       .  S
C174        C567   1.482       .  S
C176        C679   1.487       .  S
Fe177       O183   2.134       .  S
Fe177       O190   2.089       .  S
Fe177       O182   1.996       .  S
Fe177      O1217   2.010   1_554  S
Fe177       O188   1.898       .  S
Fe178       O181   2.031       .  S
Fe178       O185   2.160       .  S
Fe178      O1213   2.036       .  S
Fe178      O1218   2.151       .  S
Fe178      O1212   1.915       .  S
Fe179       O197   2.131       .  S
Fe179       O184   2.010       .  S
Fe179       O191   2.020       .  S
Fe179       O180   2.143       .  S
Fe179       O188   1.903       .  S
O180        C187   1.280       .  A
O181        C195   1.266       .  A
O182        C187   1.248       .  A
O183        C186   1.285       .  A
O184        C196   1.257       .  A
O185        C198   1.294       .  A
C186        O191   1.262       .  A
C186        C623   1.483       .  S
C187        C830   1.478       .  S
O188      Fe1202   1.925   1_554  S
O189      Fe1202   2.024   1_554  S
O189        C192   1.260       .  A
O190        C192   1.276       .  A
C192        C945   1.482       .  S
O193      Fe1201   2.005       .  S
O193        C198   1.264       .  A
O194      Fe1202   2.135   1_554  S
O194        C196   1.282       .  A
C195       O1221   1.284       .  A
C195        C525   1.484       .  S
C196        C539   1.470       .  S
O197       C1219   1.286   1_554  A
C198        C816   1.492       .  S
Fe199       O215   2.101       .  S
Fe199       O205   1.987       .  S
Fe199      O1236   1.997       .  S
Fe199      O1228   2.146       .  S
Fe199      O1234   1.908       .  S
Fe200       O207   2.035       .  S
Fe200       O211   2.155       .  S
Fe200       O216   2.024       .  S
Fe200      O1227   2.139       .  S
Fe200       O210   1.913       .  S
Fe201       O219   2.010       .  S
Fe201       O213   2.158       .  S
Fe201       O202   2.022       .  S
Fe201      O1230   2.137       .  S
Fe201      O1234   1.914       .  S
O202        C209   1.261       .  A
O203      Fe1224   2.145       .  S
O203        C217   1.285       .  A
O204      Fe1223   2.140   1_556  S
O204       C1233   1.284       .  A
O205        C208   1.244       .  A
O206      Fe1225   2.130   1_554  S
O206        C218   1.285       .  A
O207        C220   1.260       .  A
C208        O213   1.282       .  A
C208        C732   1.462       .  S
C209       O1228   1.284       .  A
C209        C564   1.485       .  S
O210      Fe1223   1.909       .  S
O210      Fe1225   1.913   1_554  S
O211        C214   1.292       .  A
O212      Fe1223   1.999       .  S
O212        C214   1.261       .  A
C214        C721   1.485       .  S
O215       C1244   1.276       .  A
O216        C218   1.263       .  A
C217        O219   1.262       .  A
C217        C480   1.492       .  S
C218        C497   1.477       .  S
C220       O1239   1.277       .  A
C220       C1532   1.483   1_554  S
Fe221       O237   2.018       .  S
Fe221       O227   2.140       .  S
Fe221       O234   2.099       .  S
Fe221       O226   2.006       .  S
Fe221       O232   1.913       .  S
Fe222       O225   2.027       .  S
Fe222       O229   2.141       .  S
Fe222       O233   2.025       .  S
Fe222       O238   2.132       .  S
Fe222       O232   1.917       .  S
Fe223       O241   2.127       .  S
Fe223       O228   2.011       .  S
Fe223       O235   2.021       .  S
Fe223       O224   2.146       .  S
Fe223       O232   1.911       .  S
O224        C231   1.283       .  A
O225        C239   1.264       .  A
O226        C231   1.252       .  A
O227        C230   1.283       .  A
O228        C240   1.262       .  A
O229        C242   1.289       .  A
C230        O235   1.260       .  A
C230        C522   1.480       .  S
C231        C452   1.475       .  S
O233        C236   1.259       .  A
O234        C236   1.276       .  A
C236        C483   1.475       .  S
O237        C242   1.266       .  A
O238        C240   1.284       .  A
C239        O241   1.282       .  A
C239        C637   1.470       .  S
C240        C466   1.468       .  S
C242        C441   1.494       .  S
Fe243       O259   2.087       .  S
Fe243       O249   1.999       .  S
Fe243      O1280   2.003       .  S
Fe243      O1272   2.134       .  S
Fe243      O1278   1.899       .  S
Fe244       O251   2.040       .  S
Fe244       O255   2.156       .  S
Fe244       O260   2.020       .  S
Fe244      O1271   2.141       .  S
Fe244       O254   1.913       .  S
Fe245       O263   2.026       .  S
Fe245       O257   2.165       .  S
Fe245       O246   2.035       .  S
Fe245      O1274   2.143       .  S
Fe245      O1278   1.912       .  S
O246        C253   1.264       .  A
O247      Fe1268   2.148       .  S
O247        C261   1.287       .  A
O248      Fe1267   2.134   1_556  S
O248       C1277   1.282       .  A
O249        C252   1.245       .  A
O250      Fe1269   2.127   1_554  S
O250        C262   1.284       .  A
O251        C264   1.259       .  A
C252        O257   1.286       .  A
C252        C665   1.480       .  S
C253       O1272   1.282       .  A
C253        C875   1.479       .  S
O254      Fe1267   1.903       .  S
O254      Fe1269   1.915   1_554  S
O255        C258   1.293       .  A
O256      Fe1267   1.996       .  S
O256        C258   1.263       .  A
C258        C651   1.490       .  S
O259       C1288   1.273       .  A
O260        C262   1.264       .  A
C261        O263   1.263       .  A
C261        C424   1.478       .  S
C262        C984   1.472       .  S
C264       O1283   1.272       .  A
C264       C1493   1.488   1_554  S
Fe265       O281   2.012       .  S
Fe265       O271   2.126   1_545  S
Fe265       O278   2.094       .  S
Fe265       O270   2.001       .  S
Fe265       O276   1.911       .  S
Fe266       O269   2.036       .  S
Fe266       O273   2.160       .  S
Fe266       O277   2.038       .  S
Fe266       O282   2.162       .  S
Fe266       O276   1.911       .  S
Fe267       O285   2.129       .  S
Fe267       O272   2.008       .  S
Fe267       O279   2.021       .  S
Fe267       O268   2.136       .  S
Fe267       O276   1.921       .  S
O268        C275   1.278       .  A
O269        C283   1.263       .  A
O270        C275   1.250       .  A
O271        C274   1.283       .  A
O272        C284   1.259       .  A
O273        C286   1.293       .  A
C274        O279   1.264   1_565  A
C274        C413   1.476       .  S
C275        C973   1.457       .  S
O277        C280   1.263       .  A
O278        C280   1.275       .  A
C280        C427   1.483       .  S
O281        C286   1.263       .  A
O282        C284   1.292       .  A
C283        O285   1.281       .  A
C283        C707   1.477       .  S
C284        C511   1.488       .  S
C286        C959   1.501       .  S
Fe287       O293   2.133       .  S
Fe287       O300   2.099       .  S
Fe287       O292   2.005       .  S
Fe287      O1327   2.024   1_554  S
Fe287       O298   1.915       .  S
Fe288       O291   2.025       .  S
Fe288       O295   2.150       .  S
Fe288      O1323   2.035       .  S
Fe288      O1328   2.142       .  S
Fe288      O1322   1.916       .  S
Fe289       O307   2.103       .  S
Fe289       O294   2.012       .  S
Fe289       O301   2.020       .  S
Fe289       O290   2.132       .  S
Fe289       O298   1.916       .  S
O290        C297   1.278       .  A
O291        C305   1.263       .  A
O292        C297   1.253       .  A
O293        C296   1.283       .  A
O294        C306   1.262       .  A
O295        C308   1.292       .  A
C296        O301   1.258       .  A
C296        C763   1.486       .  S
C297        C396   1.457       .  S
O298      Fe1312   1.920   1_554  S
O299      Fe1312   2.029   1_554  S
O299        C302   1.261       .  A
O300        C302   1.276       .  A
C302        C368   1.485       .  S
O303      Fe1311   2.022       .  S
O303        C308   1.266       .  A
O304      Fe1312   2.141   1_554  S
O304        C306   1.286       .  A
C305       O1331   1.278       .  A
C305        C410   1.469       .  S
C306       C1015   1.472       .  S
O307       C1329   1.278   1_554  A
C308        C382   1.494       .  S
Fe309       O325   2.091       .  S
Fe309       O315   2.000       .  S
Fe309       O322   2.011       .  S
Fe309       O314   2.131       .  S
Fe309       O320   1.921       .  S
Fe310       O313   2.146       .  S
Fe310       O317   2.042       .  S
Fe310       O321   2.161       .  S
Fe310       O326   2.029       .  S
Fe310       O320   1.916       .  S
Fe311       O329   2.010       .  S
Fe311       O316   2.109       .  S
Fe311       O323   2.145       .  S
Fe311       O312   2.017       .  S
Fe311       O320   1.913       .  S
O312        C319   1.257       .  A
O313        C327   1.288       .  A
O314        C319   1.279       .  A
O315        C318   1.253       .  A
O316        C328   1.280       .  A
O317        C330   1.262       .  A
C318        O323   1.282       .  A
C318        C399   1.461       .  S
C319        C357   1.475       .  S
O321        C324   1.294       .  A
O322        C324   1.265       .  A
C324        C385   1.495       .  S
O325        C330   1.274       .  A
O326        C328   1.264       .  A
C327        O329   1.263       .  A
C327        C578   1.483       .  S
C328        C553   1.476       .  S
C330        C777   1.489       .  S
Fe331       O347   2.086       .  S
Fe331       O337   2.003       .  S
Fe331       O344   2.016       .  S
Fe331       O336   2.130       .  S
Fe331       O342   1.909       .  S
Fe332       O335   2.139       .  S
Fe332       O339   2.023       .  S
Fe332       O343   2.145       .  S
Fe332       O348   2.018       .  S
Fe332       O342   1.914       .  S
Fe333       O351   2.018       .  S
Fe333       O338   2.127       .  S
Fe333       O345   2.155       .  S
Fe333       O334   2.021       .  S
Fe333       O342   1.908       .  S
O334        C341   1.259       .  A
O335        C349   1.285       .  A
O336        C341   1.282       .  A
O337        C340   1.251       .  A
O338        C350   1.285       .  A
O339        C352   1.259       .  A
C340        O345   1.284       .  A
C340        C455   1.472       .  S
C341        C494   1.481       .  S
O343        C346   1.290       .  A
O344        C346   1.266       .  A
C346        C438   1.495       .  S
O347        C352   1.273       .  A
O348        C350   1.263       .  A
C349        O351   1.262       .  A
C349        C371   1.471       .  S
C350        C354   1.475       .  S
C352        C536   1.473       .  S
C353        C354   1.412       .  A
C353        C358   1.402       .  A
C353        H360   1.084       .  S
C354        C355   1.403       .  A
C355        C356   1.399       .  A
C355        N362   1.434       .  S
C356        C357   1.411       .  A
C356        H361   1.084       .  S
C357        C358   1.404       .  A
C358        N359   1.431       .  S
N359        O363   1.262       .  A
N359        O364   1.262       .  A
N362        O366   1.263       .  A
N362        O365   1.262       .  A
C367        C368   1.403       .  A
C367        C372   1.404       .  A
C367        H374   1.084       .  S
C368        C369   1.418       .  A
C369        C370   1.404       .  A
C369        N376   1.434       .  S
C370        C371   1.400       .  A
C370        H375   1.084       .  S
C371        C372   1.413       .  A
C372        N373   1.433       .  S
N373        O377   1.262       .  A
N373        O378   1.261       .  A
N376        O380   1.262       .  A
N376       O1403   1.262   1_554  A
O379       N1400   1.262       .  A
C381        C382   1.398       .  A
C381        C386   1.406       .  A
C381        H388   1.084       .  S
C382        C383   1.424       .  A
C383        C384   1.410       .  A
C383        N390   1.435       .  S
C384        C385   1.400       .  A
C384        H389   1.084       .  S
C385        C386   1.425       .  A
C386        N387   1.436       .  S
N387        O391   1.263       .  A
N387        O392   1.262       .  A
N390        O394   1.263       .  A
N390        O393   1.262       .  A
C395        C396   1.400       .  A
C395        C400   1.398       .  A
C395        H402   1.085       .  S
C396        C397   1.407       .  A
C397        C398   1.402       .  A
C397        N404   1.431       .  S
C398        C399   1.405       .  A
C398        H403   1.084       .  S
C399        C400   1.411       .  A
C400        N401   1.432       .  S
N401        O405   1.262       .  A
N401        O406   1.262       .  A
N404        O408   1.262       .  A
N404        O407   1.261       .  A
C409        C410   1.407       .  A
C409        C414   1.399       .  A
C409        H416   1.084       .  S
C410        C411   1.402       .  A
C411        C412   1.397       .  A
C411        N418   1.429       .  S
C412        C413   1.411       .  A
C412        H417   1.084       .  S
C413        C414   1.406       .  A
C414        N415   1.428       .  S
N415        O419   1.261       .  A
N415        O420   1.262       .  A
N418       O1446   1.262       .  A
N418        O421   1.262       .  A
O422       N1442   1.262   1_554  A
C423        C424   1.403       .  A
C423        C428   1.404       .  A
C423        H430   1.084       .  S
C424        C425   1.410       .  A
C425        C426   1.404       .  A
C425        N432   1.428       .  S
C426        C427   1.404       .  A
C426        H431   1.085       .  S
C427        C428   1.414       .  A
C428        N429   1.434       .  S
N429        O433   1.263       .  A
N429        O434   1.262       .  A
N432        O436   1.260       .  A
N432        O435   1.262       .  A
C437        C438   1.414       .  A
C437        C442   1.402       .  A
C437        H444   1.084       .  S
C438        C439   1.408       .  A
C439        C440   1.403       .  A
C439        N446   1.429       .  S
C440        C441   1.414       .  A
C440        H445   1.084       .  S
C441        C442   1.408       .  A
C442        N443   1.430       .  S
N443        O447   1.262       .  A
N443        O448   1.262       .  A
N446        O450   1.262       .  A
N446        O449   1.262       .  A
C451        C456   1.404   1_556  A
C451       C1476   1.400       .  A
C451        H458   1.085       .  S
C452        C453   1.421       .  A
C452       C1475   1.397       .  A
C453       C1478   1.403       .  A
C453        N460   1.437       .  S
C454        C455   1.400       .  A
C454       C1477   1.406       .  A
C454       H1483   1.085       .  S
C455        C456   1.418       .  A
C456        N457   1.439       .  S
N457        O461   1.263       .  A
N457        O462   1.263       .  A
H459       C1478   1.085       .  S
N460        O464   1.262       .  A
N460        O463   1.263       .  A
C465        C466   1.396       .  A
C465        C470   1.404       .  A
C465        H472   1.084       .  S
C466        C467   1.411       .  A
C467        C468   1.394       .  A
C467        N474   1.431       .  S
C468        C469   1.401       .  A
C468        H473   1.084       .  S
C469       C1288   1.487       .  S
C469        C470   1.424       .  A
C470        N471   1.430       .  S
N471        O475   1.261       .  A
N471       O1500   1.262       .  A
N474        O478   1.262       .  A
N474        O477   1.262       .  A
O476       N1495   1.262       .  A
C479        C480   1.418       .  A
C479        C484   1.396       .  A
C479        H486   1.084       .  S
C480        C481   1.415       .  A
C481        C482   1.407       .  A
C481        N488   1.436       .  S
C482        C483   1.409       .  A
C482        H487   1.085       .  S
C483        C484   1.397       .  A
C484        N485   1.429       .  S
N485        O489   1.261       .  A
N485        O490   1.262       .  A
N488        O492   1.263       .  A
N488       O1515   1.261       .  A
O491       N1512   1.261   1_554  A
C493        C494   1.397       .  A
C493        C498   1.402       .  A
C493        H500   1.084       .  S
C494        C495   1.421       .  A
C495        C496   1.400       .  A
C495        N502   1.431       .  S
C496        C497   1.396       .  A
C496        H501   1.084       .  S
C497        C498   1.420       .  A
C498        N499   1.433       .  S
N499        O503   1.262       .  A
N499        O504   1.262       .  A
N502        O506   1.262       .  A
N502        O505   1.262       .  A
C507        C508   1.397       .  A
C507        C512   1.402       .  A
C507        H514   1.084       .  S
C508       C1244   1.491       .  S
C508        C509   1.423       .  A
C509        C510   1.405       .  A
C509       N1540   1.428       .  S
C510        C511   1.396       .  A
C510        H515   1.084       .  S
C511        C512   1.424       .  A
C512        N513   1.431       .  S
N513        O517   1.262       .  A
N513        O518   1.262       .  A
N516       C1533   1.435       .  S
N516        O520   1.262       .  A
N516        O519   1.261       .  A
C521        C522   1.398       .  A
C521        C526   1.405       .  A
C521        H528   1.084       .  S
C522        C523   1.419       .  A
C523        C524   1.399       .  A
C523        N530   1.431       .  S
C524        C525   1.398       .  A
C524        H529   1.084       .  S
C525        C526   1.421       .  A
C526        N527   1.431       .  S
N527        O531   1.262       .  A
N527        O532   1.262       .  A
N530        O534   1.262       .  A
N530        O533   1.262       .  A
C535        C536   1.413       .  A
C535        C540   1.402       .  A
C535        H542   1.084       .  S
C536        C537   1.402       .  A
C537        C538   1.393       .  A
C537        N544   1.429       .  S
C538        C539   1.409       .  A
C538        H543   1.085       .  S
C539        C540   1.403       .  A
C540        N541   1.431       .  S
N541       O1569   1.262       .  A
N541       O1570   1.262       .  A
N544        O548   1.262       .  A
N544        O547   1.262       .  A
O545       N1565   1.262       .  A
O546       N1565   1.262       .  A
C549        C550   1.410       .  A
C549        C554   1.403       .  A
C549        H556   1.084       .  S
C550        C551   1.406       .  A
C551        C552   1.400       .  A
C551        N558   1.430       .  S
C552        C553   1.408       .  A
C552        H557   1.084       .  S
C553        C554   1.408       .  A
C554        N555   1.437       .  S
N555        O559   1.263       .  A
N555        O560   1.263       .  A
N558        O562   1.262       .  A
N558        O561   1.262       .  A
C563        C564   1.399       .  A
C563        C568   1.405       .  A
C563        H570   1.084       .  S
C564        C565   1.421       .  A
C565        C566   1.400       .  A
C565       N1596   1.430       .  S
C566        C567   1.396       .  A
C566        H571   1.084       .  S
C567        C568   1.420       .  A
C568        N569   1.431       .  S
N569        O573   1.262       .  A
N569        O574   1.262       .  A
N572       C1589   1.431       .  S
N572       O1600   1.262       .  A
N572        O575   1.262       .  A
O576       N1596   1.262       .  A
C577        C578   1.412       .  A
C577        C582   1.401       .  A
C577        H584   1.083       .  S
C578        C579   1.402       .  A
C579        C580   1.403       .  A
C579        N586   1.428       .  S
C580        C581   1.415       .  A
C580        H585   1.081       .  S
C581        C582   1.405       .  A
C582        N583   1.429       .  S
N583        O587   1.262       .  A
N583        O588   1.262       .  A
N586        O590   1.262       .  A
N586        O589   1.262       .  A
C591        C596   1.407   1_556  A
C591       C1616   1.413       .  A
C591       H1622   1.085       .  S
C592        C593   1.407       .  A
C592       C1615   1.418       .  A
C593       C1618   1.402   1_655  A
C593        N600   1.429       .  S
C594        C595   1.411       .  A
C594       C1617   1.404   1_554  A
C594        H599   1.085       .  S
C595        C596   1.407   1_455  A
C596        N597   1.430       .  S
N597        O601   1.262   1_554  A
N597        O602   1.262       .  A
H598       C1615   1.084       .  S
N600        O604   1.262       .  A
N600        O603   1.262   1_655  A
C605        C606   1.412   1_455  A
C605        C610   1.403       .  A
C605        H612   1.085       .  S
C606        C607   1.408       .  A
C607        C608   1.402       .  A
C607        N614   1.437       .  S
C608        C609   1.412   1_655  A
C608        H613   1.085       .  S
C609        C610   1.410       .  A
C610        N611   1.436       .  S
N611        O615   1.262       .  A
N611        O616   1.263       .  A
N614        O618   1.262       .  A
N614        O617   1.263       .  A
C619        C620   1.396       .  A
C619        C624   1.400       .  A
C619        H626   1.084       .  S
C620        C621   1.416       .  A
C621        C622   1.401       .  A
C621        N628   1.429       .  S
C622        C623   1.399       .  A
C622        H627   1.084       .  S
C623        C624   1.422       .  A
C624        N625   1.430       .  S
N625        O629   1.262       .  A
N625        O630   1.262       .  A
N628        O632   1.262       .  A
N628        O631   1.262       .  A
C633        C634   1.416       .  A
C633        C638   1.402       .  A
C633        H640   1.083       .  S
C634        C635   1.415       .  A
C635        C636   1.404       .  A
C635        N642   1.433       .  S
C636        C637   1.404       .  A
C636        H641   1.084       .  S
C637        C638   1.399       .  A
C638        N639   1.429       .  S
N639        O643   1.262       .  A
N639        O644   1.262       .  A
N642        O646   1.262       .  A
N642        O645   1.263       .  A
C647        C648   1.417       .  A
C647        C652   1.402       .  A
C647        H654   1.084       .  S
C648        C649   1.405       .  A
C649        C650   1.401       .  A
C649        N656   1.430       .  S
C650        C651   1.416       .  A
C650        H655   1.084       .  S
C651        C652   1.405       .  A
C652        N653   1.430       .  S
N653        O657   1.262       .  A
N653        O658   1.262       .  A
N656        O660   1.262       .  A
N656        O659   1.262       .  A
C661        C662   1.389       .  A
C661        C666   1.400       .  A
C661        H668   1.084       .  S
C662        C663   1.428       .  A
C663        C664   1.398       .  A
C663        N670   1.432       .  S
C664        C665   1.390       .  A
C664        H669   1.084       .  S
C665        C666   1.431       .  A
C666        N667   1.435       .  S
N667        O671   1.262       .  A
N667        O672   1.262       .  A
N670        O674   1.262       .  A
N670        O673   1.262       .  A
C675        C676   1.408       .  A
C675        C680   1.400       .  A
C675        H682   1.085       .  S
C676        C677   1.402       .  A
C677        C678   1.404       .  A
C677        N684   1.429       .  S
C678        C679   1.415       .  A
C678        H683   1.084       .  S
C679        C680   1.408       .  A
C680        N681   1.430       .  S
N681        O685   1.262       .  A
N681        O686   1.262       .  A
N684        O688   1.262       .  A
N684        O687   1.261       .  A
C689        C690   1.410       .  A
C689        C694   1.398       .  A
C689        H696   1.084       .  S
C690        C691   1.403       .  A
C691        C692   1.403       .  A
C691        N698   1.428       .  S
C692        C693   1.413       .  A
C692        H697   1.084       .  S
C693        C694   1.403       .  A
C694        N695   1.429       .  S
N695        O699   1.262       .  A
N695        O700   1.262       .  A
N698        O702   1.262       .  A
N698        O701   1.262       .  A
C703        C704   1.400       .  A
C703        C708   1.395       .  A
C703        H710   1.090       .  S
C704        C705   1.416       .  A
C705        C706   1.408       .  A
C705        N712   1.434       .  S
C706        C707   1.404       .  A
C706        H711   1.088       .  S
C707        C708   1.410       .  A
C708        N709   1.426       .  S
N709        O713   1.261       .  A
N709        O714   1.262       .  A
N712        O716   1.262       .  A
N712        O715   1.263       .  A
C717        C718   1.396       .  A
C717        C722   1.403       .  A
C717        H724   1.084       .  S
C718        C719   1.422       .  A
C719        C720   1.405       .  A
C719        N726   1.437       .  S
C720        C721   1.398       .  A
C720        H725   1.084       .  S
C721        C722   1.423       .  A
C722        N723   1.435       .  S
N723        O727   1.262       .  A
N723        O728   1.262       .  A
N726        O730   1.263       .  A
N726        O729   1.263       .  A
C731        C732   1.391       .  A
C731        C736   1.398       .  A
C731        H738   1.084       .  S
C732        C733   1.420       .  A
C733        C734   1.397       .  A
C733        N740   1.430       .  S
C734        C735   1.391       .  A
C734        H739   1.084       .  S
C735        C736   1.423       .  A
C736        N737   1.431       .  S
N737        O741   1.262       .  A
N737        O742   1.262       .  A
N740        O744   1.262       .  A
N740        O743   1.262       .  A
C745        C746   1.405       .  A
C745        C750   1.403       .  A
C745        H752   1.084       .  S
C746        C747   1.415       .  A
C747        C748   1.404       .  A
C747        N754   1.429       .  S
C748        C749   1.402       .  A
C748        H753   1.084       .  S
C749        C750   1.410       .  A
C750        N751   1.429       .  S
N751        O755   1.262       .  A
N751        O756   1.262       .  A
N754        O758   1.262       .  A
N754        O757   1.262       .  A
C759        C760   1.393       .  A
C759        C764   1.400       .  A
C759        H766   1.084       .  S
C760        C761   1.414       .  A
C761        C762   1.400       .  A
C761        N768   1.431       .  S
C762        C763   1.400       .  A
C762        H767   1.084       .  S
C763        C764   1.426       .  A
C764        N765   1.431       .  S
N765        O769   1.262       .  A
N765        O770   1.262       .  A
N768        O772   1.262       .  A
N768        O771   1.262       .  A
C773        C774   1.411       .  A
C773        C778   1.401       .  A
C773        H780   1.086       .  S
C774        C775   1.403       .  A
C775        C776   1.406       .  A
C775        N782   1.428       .  S
C776        C777   1.415       .  A
C776        H781   1.085       .  S
C777        C778   1.409       .  A
C778        N779   1.434       .  S
N779        O783   1.263       .  A
N779        O784   1.262       .  A
N782        O786   1.262       .  A
N782        O785   1.262       .  A
C787        C788   1.407       .  A
C787        C792   1.403       .  A
C787        H794   1.085       .  S
C788        C789   1.398       .  A
C789        C790   1.400       .  A
C789        N796   1.428       .  S
C790        C791   1.416       .  A
C790        H795   1.084       .  S
C791        C792   1.411       .  A
C792        N793   1.435       .  S
N793        O797   1.262       .  A
N793        O798   1.263       .  A
N796        O800   1.262       .  A
N796        O799   1.262       .  A
C801        C802   1.411       .  A
C801        C806   1.408       .  A
C801        H808   1.086       .  S
C802        C803   1.403       .  A
C803        C804   1.398       .  A
C803        N810   1.429       .  S
C804        C805   1.413       .  A
C804        H809   1.086       .  S
C805        C806   1.408       .  A
C806        N807   1.431       .  S
N807        O811   1.262       .  A
N807        O812   1.262       .  A
N810        O814   1.262       .  A
N810        O813   1.262       .  A
C815        C816   1.416       .  A
C815        C820   1.404       .  A
C815        H822   1.084       .  S
C816        C817   1.405       .  A
C817        C818   1.405       .  A
C817        N824   1.430       .  S
C818        C819   1.416       .  A
C818        H823   1.084       .  S
C819        C820   1.404       .  A
C820        N821   1.429       .  S
N821        O825   1.262       .  A
N821        O826   1.262       .  A
N824        O828   1.262       .  A
N824        O827   1.262       .  A
C829        C830   1.415       .  A
C829        C834   1.404       .  A
C829        H836   1.085       .  S
C830        C831   1.405       .  A
C831        C832   1.398       .  A
C831        N838   1.434       .  S
C832        C833   1.415       .  A
C832        H837   1.084       .  S
C833        C834   1.409       .  A
C834        N835   1.437       .  S
N835        O839   1.262       .  A
N835        O840   1.263       .  A
N838        O842   1.262       .  A
N838        O841   1.262       .  A
C843        C844   1.410       .  A
C843        C848   1.398       .  A
C843        H850   1.084       .  S
C844        C845   1.401       .  A
C845        C846   1.401       .  A
C845        N852   1.428       .  S
C846        C847   1.414       .  A
C846        H851   1.083       .  S
C847        C848   1.406       .  A
C848        N849   1.430       .  S
N849        O853   1.262       .  A
N849        O854   1.262       .  A
N852        O856   1.262       .  A
N852        O855   1.262       .  A
C857        C858   1.414       .  A
C857        C862   1.396       .  A
C857        H864   1.084       .  S
C858        C859   1.412       .  A
C859        C860   1.407       .  A
C859        N866   1.434       .  S
C860        C861   1.410       .  A
C860        H865   1.084       .  S
C861        C862   1.399       .  A
C862        N863   1.429       .  S
N863        O867   1.262       .  A
N863        O868   1.262       .  A
N866        O870   1.262       .  A
N866        O869   1.262       .  A
C871        C872   1.405       .  A
C871        C876   1.404       .  A
C871        H878   1.085       .  S
C872        C873   1.418       .  A
C873        C874   1.404       .  A
C873        N880   1.435       .  S
C874        C875   1.403       .  A
C874        H879   1.085       .  S
C875        C876   1.411       .  A
C876       N1901   1.432       .  S
N877       C1900   1.435   1_554  S
N877        O881   1.263       .  A
N877        O882   1.262       .  A
N880        O884   1.262       .  A
N880        O883   1.263       .  A
C885        C886   1.418   1_545  A
C885       C1914   1.407   1_655  A
C885        H892   1.083       .  S
C886        C887   1.408       .  A
C887       C1912   1.404   1_654  A
C887        N894   1.429       .  S
C888        C889   1.415   1_565  A
C888       C1911   1.407       .  A
C888        H893   1.084       .  S
C889        C890   1.410       .  A
C890       C1909   1.408   1_455  A
C890        N891   1.430   1_455  S
N891        O895   1.262       .  A
N891        O896   1.262   1_655  A
N894        O898   1.262   1_655  A
N894        O897   1.262   1_554  A
C899        C900   1.399   1_565  A
C899        C904   1.401   1_455  A
C899        H906   1.085       .  S
C900        C901   1.416   1_455  A
C901        C902   1.403       .  A
C901        N908   1.438       .  S
C902        C903   1.400   1_545  A
C902        H907   1.085       .  S
C903        C904   1.416       .  A
C904        N905   1.437   1_655  S
N905        O909   1.262       .  A
N905        O910   1.263   1_455  A
N908        O912   1.262       .  A
N908        O911   1.263   1_655  A
C913        C914   1.401       .  A
C913        C918   1.401       .  A
C913        H920   1.084       .  S
C914        C915   1.426       .  A
C915        C916   1.404       .  A
C915        N922   1.431       .  S
C916        C917   1.395       .  A
C916        H921   1.084       .  S
C917        C918   1.416       .  A
C918        N919   1.431       .  S
N919        O923   1.262       .  A
N919        O924   1.262       .  A
N922        O926   1.262       .  A
N922        O925   1.262   1_655  A
C927        C928   1.410       .  A
C927        C932   1.405       .  A
C927        H934   1.084       .  S
C928        C929   1.404       .  A
C929        C930   1.401       .  A
C929        N936   1.429       .  S
C930        C931   1.413       .  A
C930        H935   1.084       .  S
C931        C932   1.408       .  A
C932        N933   1.429       .  S
N933        O937   1.262       .  A
N933        O938   1.262       .  A
N936        O940   1.262       .  A
N936        O939   1.262       .  A
C941        C942   1.412       .  A
C941        C946   1.400       .  A
C941        H948   1.084       .  S
C942        C943   1.400       .  A
C943        C944   1.402       .  A
C943        N950   1.428       .  S
C944        C945   1.415       .  A
C944        H949   1.083       .  S
C945        C946   1.406       .  A
C946        N947   1.432       .  S
N947        O951   1.262       .  A
N947        O952   1.262   1_554  A
N950        O954   1.261       .  A
N950        O953   1.262       .  A
C955        C956   1.398       .  A
C955        C960   1.405       .  A
C955        H962   1.084       .  S
C956        C957   1.426   1_565  A
C957        C958   1.407       .  A
C957        N964   1.432       .  S
C958        C959   1.399       .  A
C958        H963   1.084       .  S
C959        C960   1.426   1_545  A
C960        N961   1.430       .  S
N961        O965   1.262       .  A
N961        O966   1.262       .  A
N964        O968   1.262       .  A
N964        O967   1.262       .  A
C969        C970   1.401   1_545  A
C969        C974   1.405       .  A
C969        H976   1.084       .  S
C970        C971   1.414       .  A
C971       C1996   1.402   1_554  A
C971        N978   1.436       .  S
C972        C973   1.401   1_565  A
C972       C1995   1.400       .  A
C972        H977   1.085       .  S
C973       C1998   1.407       .  A
C974       C1997   1.416   1_554  A
C974        N975   1.439       .  S
N975        O979   1.263       .  A
N975       O2004   1.263       .  A
N978       O2006   1.262       .  A
N978        O981   1.263       .  A
O980       N1999   1.262       .  A
O982       N2002   1.262       .  A
C983        C984   1.409       .  A
C983        C988   1.400       .  A
C983        H990   1.084       .  S
C984        C985   1.402       .  A
C985        C986   1.401       .  A
C985        N992   1.432       .  S
C986        C987   1.413       .  A
C986        H991   1.084       .  S
C987        C988   1.406       .  A
C988        N989   1.429       .  S
N989        O993   1.262       .  A
N989        O994   1.262       .  A
N992        O996   1.262       .  A
N992        O995   1.262       .  A
C997        C998   1.409       .  A
C997       C1002   1.403       .  A
C997       H1004   1.084       .  S
C998        C999   1.400       .  A
C999       C1000   1.398       .  A
C999       N1006   1.429       .  S
C1000      C1001   1.413       .  A
C1000      H1005   1.084       .  S
C1001      C1002   1.407       .  A
C1002      N1003   1.429       .  S
N1003      O1007   1.262       .  A
N1003      O1008   1.262       .  A
N1006      O1010   1.262       .  A
N1006      O1009   1.262       .  A
C1011      C1012   1.415       .  A
C1011      C1016   1.404       .  A
C1011      H1018   1.082       .  S
C1012      C1013   1.410       .  A
C1013      C1014   1.398       .  A
C1013      N1020   1.429       .  S
C1014      C1015   1.406       .  A
C1014      H1019   1.085       .  S
C1015      C1016   1.402       .  A
C1016      N1017   1.429       .  S
N1017      O1021   1.262       .  A
N1017      O1022   1.262       .  A
N1020      O1024   1.262       .  A
N1020      O1023   1.262       .  A
Fe1025     O1041   2.090       .  S
Fe1025     O1031   2.004       .  S
Fe1025     O1038   2.023       .  S
Fe1025     O1030   2.132   1_565  S
Fe1025     O1036   1.919       .  S
Fe1026     O1029   2.148       .  S
Fe1026     O1033   2.047       .  S
Fe1026     O1037   2.167       .  S
Fe1026     O1042   2.031       .  S
Fe1026     O1036   1.915       .  S
Fe1027     O1045   2.012       .  S
Fe1027     O1032   2.117       .  S
Fe1027     O1039   2.145       .  S
Fe1027     O1028   2.020       .  S
Fe1027     O1036   1.921       .  S
O1028      C1035   1.260   1_565  A
O1029      C1043   1.288       .  A
O1030      C1035   1.281       .  A
O1031      C1034   1.250       .  A
O1032      C1044   1.282       .  A
O1033      C1046   1.262       .  A
C1034      O1039   1.281       .  A
C1034      C1994   1.460       .  S
C1035      C2011   1.481       .  S
O1037      C1040   1.296       .  A
O1038      C1040   1.267       .  A
C1040      C1980   1.506       .  S
O1041      C1046   1.273       .  A
O1042      C1044   1.266       .  A
C1043      O1045   1.262       .  A
C1043      C1966   1.477       .  S
C1044      C2022   1.479       .  S
C1046      C2036   1.496       .  S
Fe1047     O1063   2.095   1_455  S
Fe1047     O1053   2.005       .  S
Fe1047     O1060   2.014       .  S
Fe1047     O1052   2.138   1_545  S
Fe1047     O1058   1.911       .  S
Fe1048     O1051   2.151       .  S
Fe1048     O1055   2.043       .  S
Fe1048     O1059   2.158       .  S
Fe1048     O1064   2.042       .  S
Fe1048     O1058   1.916       .  S
Fe1049     O1067   2.015       .  S
Fe1049     O1054   2.126       .  S
Fe1049     O1061   2.138       .  S
Fe1049     O1050   2.026       .  S
Fe1049     O1058   1.920       .  S
O1050      C1057   1.265   1_545  A
O1051      C1065   1.288       .  A
O1052      C1057   1.285       .  A
O1053      C1056   1.248       .  A
O1054      C1066   1.282       .  A
O1055      C1068   1.263   1_455  A
C1056      O1061   1.278       .  A
C1056      C1924   1.459       .  S
C1057      C1955   1.487       .  S
O1059      C1062   1.293       .  A
O1060      C1062   1.265       .  A
C1062      C1913   1.504       .  S
O1063      C1068   1.275       .  A
O1064      C1066   1.267       .  A
C1065      O1067   1.262       .  A
C1065      C1882   1.488       .  S
C1066      C1896   1.481       .  S
C1068      C1938   1.488       .  S
Fe1069     O1085   2.094       .  S
Fe1069     O1075   1.992       .  S
Fe1069     O1082   2.008       .  S
Fe1069     O1074   2.132       .  S
Fe1069     O1080   1.915       .  S
Fe1070     O1073   2.126       .  S
Fe1070     O1077   2.043       .  S
Fe1070     O1081   2.151       .  S
Fe1070     O1086   2.039       .  S
Fe1070     O1080   1.922       .  S
Fe1071     O1089   2.015       .  S
Fe1071     O1076   2.117       .  S
Fe1071     O1083   2.146       .  S
Fe1071     O1072   2.020       .  S
Fe1071     O1080   1.912       .  S
O1072      C1079   1.261       .  A
O1073      C1087   1.281       .  A
O1074      C1079   1.282       .  A
O1075      C1078   1.250       .  A
O1076      C1088   1.284       .  A
O1077      C1090   1.262       .  A
C1078      O1083   1.281       .  A
C1078      C1857   1.473       .  S
C1079      C2025   1.479       .  S
O1081      C1084   1.292       .  A
O1082      C1084   1.263       .  A
C1084      C1843   1.493       .  S
O1085      C1090   1.274       .  A
O1086      C1088   1.270       .  A
C1087      O1089   1.262       .  A
C1087      C1868   1.469       .  S
C1088      C1952   1.479       .  S
C1090      C1826   1.488       .  S
Fe1091     O1107   2.025       .  S
Fe1091     O1097   2.137   1_565  S
Fe1091     O1104   2.089   1_655  S
Fe1091     O1096   2.006       .  S
Fe1091     O1102   1.912       .  S
Fe1092     O1095   2.025       .  S
Fe1092     O1099   2.156       .  S
Fe1092     O1103   2.031       .  S
Fe1092     O1108   2.145       .  S
Fe1092     O1102   1.919       .  S
Fe1093     O1111   2.122       .  S
Fe1093     O1098   2.019       .  S
Fe1093     O1105   2.022       .  S
Fe1093     O1094   2.142       .  S
Fe1093     O1102   1.921       .  S
O1094      C1101   1.279       .  A
O1095      C1109   1.265       .  A
O1096      C1101   1.248       .  A
O1097      C1100   1.284       .  A
O1098      C1110   1.262       .  A
O1099      C1112   1.293       .  A
C1100      O1105   1.264   1_545  A
C1100      C1812   1.482       .  S
C1101      C1927   1.460       .  S
O1103      C1106   1.261   1_655  A
O1104      C1106   1.273       .  A
C1106      C1871   1.489       .  S
O1107      C1112   1.268       .  A
O1108      C1110   1.285       .  A
C1109      O1111   1.283       .  A
C1109      C1784   1.471       .  S
C1110      C1798   1.480       .  S
C1112      C1910   1.504       .  S
Fe1113     O1129   2.008       .  S
Fe1113     O1119   2.132       .  S
Fe1113     O1126   2.093       .  S
Fe1113     O1118   1.991       .  S
Fe1113     O1124   1.911       .  S
Fe1114     O1117   2.028       .  S
Fe1114     O1121   2.149       .  S
Fe1114     O1125   2.046       .  S
Fe1114     O1130   2.135       .  S
Fe1114     O1124   1.915       .  S
Fe1115     O1133   2.131       .  S
Fe1115     O1120   2.029       .  S
Fe1115     O1127   2.035       .  S
Fe1115     O1116   2.161       .  S
Fe1115     O1124   1.922       .  S
O1116      C1123   1.284       .  A
O1117      C1131   1.265       .  A
O1118      C1123   1.244       .  A
O1119      C1122   1.282       .  A
O1120      C1132   1.265       .  A
O1121      C1134   1.291       .  A
C1122      O1127   1.263       .  A
C1122      C1728   1.481       .  S
C1123      C1759   1.467       .  S
O1125      C1128   1.262       .  A
O1126      C1128   1.275       .  A
C1128      C1770   1.491       .  S
O1129      C1134   1.263       .  A
O1130      C1132   1.285       .  A
C1131      O1133   1.285       .  A
C1131      C1815   1.482       .  S
C1132      C1941   1.473       .  S
C1134      C1742   1.486       .  S
Fe1135     O1151   2.003       .  S
Fe1135     O1141   2.137       .  S
Fe1135     O1148   2.090       .  S
Fe1135     O1140   1.995       .  S
Fe1135     O1146   1.902       .  S
Fe1136     O1139   2.026       .  S
Fe1136     O1143   2.157       .  S
Fe1136     O1147   2.043       .  S
Fe1136     O1152   2.143       .  S
Fe1136     O1146   1.908       .  S
Fe1137     O1155   2.138       .  S
Fe1137     O1142   2.014       .  S
Fe1137     O1149   2.030       .  S
Fe1137     O1138   2.164       .  S
Fe1137     O1146   1.914       .  S
O1138      C1145   1.284       .  A
O1139      C1153   1.265       .  A
O1140      C1145   1.244       .  A
O1141      C1144   1.282       .  A
O1142      C1154   1.263       .  A
O1143      C1156   1.294       .  A
C1144      O1149   1.264       .  A
C1144      C1658   1.494       .  S
C1145      C1686   1.478       .  S
O1147      C1150   1.261       .  A
O1148      C1150   1.273       .  A
C1150      C1885   1.485       .  S
O1151      C1156   1.265       .  A
O1152      C1154   1.286       .  A
C1153      O1155   1.287       .  A
C1153      C1717   1.488       .  S
C1154      C1700   1.484       .  S
C1156      C1672   1.496       .  S
Fe1157     O1173   2.010       .  S
Fe1157     O1163   2.142       .  S
Fe1157     O1170   2.099   1_455  S
Fe1157     O1162   1.992       .  S
Fe1157     O1168   1.908       .  S
Fe1158     O1161   2.020       .  S
Fe1158     O1165   2.161       .  S
Fe1158     O1169   2.031       .  S
Fe1158     O1174   2.152       .  S
Fe1158     O1168   1.916       .  S
Fe1159     O1177   2.131       .  S
Fe1159     O1164   2.013       .  S
Fe1159     O1171   2.020       .  S
Fe1159     O1160   2.158       .  S
Fe1159     O1168   1.912       .  S
O1160      C1167   1.284       .  A
O1161      C1175   1.264       .  A
O1162      C1167   1.249       .  A
O1163      C1166   1.283       .  A
O1164      C1176   1.262       .  A
O1165      C1178   1.293       .  A
C1166      O1171   1.260       .  A
C1166      C1714   1.480       .  S
C1167      C1633   1.479       .  S
O1169      C1172   1.261   1_455  A
O1170      C1172   1.276       .  A
C1172      C1605   1.488       .  S
O1173      C1178   1.265       .  A
O1174      C1176   1.287       .  A
C1175      O1177   1.286       .  A
C1175      C1644   1.476       .  S
C1176      C1829   1.485       .  S
C1178      C1619   1.502       .  S
Fe1179     O1195   2.095   1_655  S
Fe1179     O1185   1.993       .  S
Fe1179     O1192   2.012       .  S
Fe1179     O1184   2.124       .  S
Fe1179     O1190   1.916       .  S
Fe1180     O1183   2.141       .  S
Fe1180     O1187   2.034       .  S
Fe1180     O1191   2.161       .  S
Fe1180     O1196   2.022       .  S
Fe1180     O1190   1.918       .  S
Fe1181     O1199   2.027       .  S
Fe1181     O1186   2.131       .  S
Fe1181     O1193   2.150       .  S
Fe1181     O1182   2.027       .  S
Fe1181     O1190   1.915       .  S
O1182      C1189   1.262       .  A
O1183      C1197   1.284       .  A
O1184      C1189   1.280       .  A
O1185      C1188   1.251       .  A
O1186      C1198   1.286       .  A
O1187      C1200   1.260   1_655  A
C1188      O1193   1.284       .  A
C1188      C1630   1.475       .  S
C1189      C1574   1.479       .  S
O1191      C1194   1.293       .  A
O1192      C1194   1.263       .  A
C1194      C1616   1.488       .  S
O1195      C1200   1.274       .  A
O1196      C1198   1.265       .  A
C1197      O1199   1.262       .  A
C1197      C1773   1.477       .  S
C1198      C1591   1.475       .  S
C1200      C1703   1.481       .  S
Fe1201     O1207   2.144       .  S
Fe1201     O1214   2.095       .  S
Fe1201     O1206   1.991       .  S
Fe1201     O1212   1.907       .  S
Fe1202     O1205   2.022       .  S
Fe1202     O1209   2.148       .  S
Fe1203     O1221   2.128       .  S
Fe1203     O1208   2.006       .  S
Fe1203     O1215   2.016       .  S
Fe1203     O1204   2.153       .  S
Fe1203     O1212   1.907       .  S
O1204      C1211   1.280       .  A
O1205      C1219   1.267       .  A
O1206      C1211   1.247       .  A
O1207      C1210   1.286       .  A
O1208      C1220   1.260       .  A
O1209      C1222   1.291       .  A
C1210      O1215   1.259       .  A
C1210      C1647   1.483       .  S
C1211      C1854   1.476       .  S
O1213      C1216   1.262       .  A
O1214      C1216   1.276       .  A
C1216      C1969   1.497       .  S
O1217      C1222   1.262       .  A
O1218      C1220   1.287       .  A
C1219      C1549   1.470       .  S
C1220      C1563   1.482       .  S
C1222      C1840   1.492       .  S
Fe1223     O1239   2.104       .  S
Fe1223     O1229   1.985   1_554  S
Fe1224     O1231   2.041       .  S
Fe1224     O1235   2.158       .  S
Fe1224     O1240   2.026       .  S
Fe1224     O1234   1.912       .  S
Fe1225     O1243   2.014       .  S
Fe1225     O1237   2.161       .  S
Fe1225     O1226   2.022   1_556  S
O1226      C1233   1.259   1_554  A
O1227      C1241   1.285   1_554  A
O1229      C1232   1.245       .  A
O1230      C1242   1.286       .  A
O1231      C1244   1.261       .  A
C1232      O1237   1.284       .  A
C1232      C1756   1.466       .  S
C1233      C1588   1.489       .  S
O1235      C1238   1.293       .  A
O1236      C1238   1.262       .  A
C1238      C1745   1.489       .  S
O1240      C1242   1.263       .  A
C1241      O1243   1.264       .  A
C1241      C1504   1.486       .  S
C1242      C1521   1.483       .  S
Fe1245     O1261   2.020       .  S
Fe1245     O1251   2.134       .  S
Fe1245     O1258   2.094       .  S
Fe1245     O1250   2.008       .  S
Fe1245     O1256   1.910       .  S
Fe1246     O1249   2.030       .  S
Fe1246     O1253   2.147       .  S
Fe1246     O1257   2.030       .  S
Fe1246     O1262   2.142       .  S
Fe1246     O1256   1.915       .  S
Fe1247     O1265   2.127       .  S
Fe1247     O1252   2.015       .  S
Fe1247     O1259   2.018       .  S
Fe1247     O1248   2.151       .  S
Fe1247     O1256   1.909       .  S
O1248      C1255   1.284       .  A
O1249      C1263   1.264       .  A
O1250      C1255   1.251       .  A
O1251      C1254   1.284       .  A
O1252      C1264   1.262       .  A
O1253      C1266   1.290       .  A
C1254      O1259   1.259       .  A
C1254      C1546   1.486       .  S
C1255      C1476   1.472       .  S
O1257      C1260   1.261       .  A
O1258      C1260   1.275       .  A
C1260      C1507   1.478       .  S
O1261      C1266   1.266       .  A
O1262      C1264   1.286       .  A
C1263      O1265   1.282       .  A
C1263      C1661   1.470       .  S
C1264      C1490   1.474       .  S
C1266      C1465   1.499       .  S
Fe1267     O1283   2.085       .  S
Fe1267     O1273   1.996   1_554  S
Fe1268     O1275   2.038       .  S
Fe1268     O1279   2.156       .  S
Fe1268     O1284   2.014       .  S
Fe1268     O1278   1.908       .  S
Fe1269     O1287   2.019       .  S
Fe1269     O1281   2.163       .  S
Fe1269     O1270   2.033       .  S
O1270      C1277   1.263       .  A
O1271      C1285   1.286   1_554  A
O1273      C1276   1.244       .  A
O1274      C1286   1.288       .  A
O1275      C1288   1.260       .  A
C1276      O1281   1.285       .  A
C1276      C1689   1.478       .  S
C1277      C1899   1.482       .  S
O1279      C1282   1.293       .  A
O1280      C1282   1.264       .  A
C1282      C1675   1.495       .  S
O1284      C1286   1.262       .  A
C1285      O1287   1.265       .  A
C1285      C1448   1.480       .  S
C1286      C2008   1.475       .  S
Fe1289     O1305   2.016       .  S
Fe1289     O1295   2.125   1_545  S
Fe1289     O1302   2.086       .  S
Fe1289     O1294   2.009       .  S
Fe1289     O1300   1.912       .  S
Fe1290     O1293   2.037       .  S
Fe1290     O1297   2.170       .  S
Fe1290     O1301   2.040       .  S
Fe1290     O1306   2.159       .  S
Fe1290     O1300   1.914       .  S
Fe1291     O1309   2.131       .  S
Fe1291     O1296   2.012       .  S
Fe1291     O1303   2.018       .  S
Fe1291     O1292   2.142       .  S
Fe1291     O1300   1.912       .  S
O1292      C1299   1.280       .  A
O1293      C1307   1.265       .  A
O1294      C1299   1.251       .  A
O1295      C1298   1.282       .  A
O1296      C1308   1.259       .  A
O1297      C1310   1.295       .  A
C1298      O1303   1.263   1_565  A
C1298      C1437   1.474       .  S
C1299      C1997   1.467       .  S
O1301      C1304   1.260       .  A
O1302      C1304   1.274       .  A
C1304      C1451   1.488       .  S
O1305      C1310   1.264       .  A
O1306      C1308   1.291       .  A
C1307      O1309   1.282       .  A
C1307      C1731   1.482       .  S
C1308      C1535   1.491       .  S
C1310      C1983   1.506       .  S
Fe1311     O1317   2.135       .  S
Fe1311     O1324   2.097       .  S
Fe1311     O1316   2.002       .  S
Fe1311     O1322   1.917       .  S
Fe1312     O1315   2.027       .  S
Fe1312     O1319   2.148       .  S
Fe1313     O1331   2.105       .  S
Fe1313     O1318   2.017       .  S
Fe1313     O1325   2.020       .  S
Fe1313     O1314   2.139       .  S
Fe1313     O1322   1.922       .  S
O1314      C1321   1.279       .  A
O1315      C1329   1.265       .  A
O1316      C1321   1.251       .  A
O1317      C1320   1.282       .  A
O1318      C1330   1.263       .  A
O1319      C1332   1.291       .  A
C1320      O1325   1.258       .  A
C1320      C1787   1.484       .  S
C1321      C1420   1.458       .  S
O1323      C1326   1.261       .  A
O1324      C1326   1.275       .  A
C1326      C1392   1.486       .  S
O1327      C1332   1.266       .  A
O1328      C1330   1.287       .  A
C1329      C1434   1.470       .  S
C1330      C2039   1.473       .  S
C1332      C1406   1.493       .  S
Fe1333     O1349   2.095       .  S
Fe1333     O1339   2.000       .  S
Fe1333     O1346   2.018       .  S
Fe1333     O1338   2.135       .  S
Fe1333     O1344   1.915       .  S
Fe1334     O1337   2.142       .  S
Fe1334     O1341   2.040       .  S
Fe1334     O1345   2.157       .  S
Fe1334     O1350   2.030       .  S
Fe1334     O1344   1.919       .  S
Fe1335     O1353   2.014       .  S
Fe1335     O1340   2.115       .  S
Fe1335     O1347   2.144       .  S
Fe1335     O1336   2.020       .  S
Fe1335     O1344   1.916       .  S
O1336      C1343   1.261       .  A
O1337      C1351   1.286       .  A
O1338      C1343   1.281       .  A
O1339      C1342   1.250       .  A
O1340      C1352   1.282       .  A
O1341      C1354   1.262       .  A
C1342      O1347   1.280       .  A
C1342      C1423   1.460       .  S
C1343      C1381   1.480       .  S
O1345      C1348   1.292       .  A
O1346      C1348   1.266       .  A
C1348      C1409   1.494       .  S
O1349      C1354   1.275       .  A
O1350      C1352   1.266       .  A
C1351      O1353   1.263       .  A
C1351      C1602   1.480       .  S
C1352      C1577   1.478       .  S
C1354      C1801   1.495       .  S
Fe1355     O1371   2.094       .  S
Fe1355     O1361   2.002       .  S
Fe1355     O1368   2.021       .  S
Fe1355     O1360   2.139       .  S
Fe1355     O1366   1.914       .  S
Fe1356     O1359   2.138       .  S
Fe1356     O1363   2.032       .  S
Fe1356     O1367   2.149       .  S
Fe1356     O1372   2.026       .  S
Fe1356     O1366   1.917       .  S
Fe1357     O1375   2.024       .  S
Fe1357     O1362   2.128       .  S
Fe1357     O1369   2.151       .  S
Fe1357     O1358   2.023       .  S
Fe1357     O1366   1.911       .  S
O1358      C1365   1.260       .  A
O1359      C1373   1.284       .  A
O1360      C1365   1.284       .  A
O1361      C1364   1.251       .  A
O1362      C1374   1.286       .  A
O1363      C1376   1.260       .  A
C1364      O1369   1.283       .  A
C1364      C1479   1.476       .  S
C1365      C1518   1.486       .  S
O1367      C1370   1.291       .  A
O1368      C1370   1.267       .  A
C1370      C1462   1.499       .  S
O1371      C1376   1.275       .  A
O1372      C1374   1.265       .  A
C1373      O1375   1.262       .  A
C1373      C1395   1.474       .  S
C1374      C1378   1.480       .  S
C1376      C1560   1.478       .  S
C1377      C1378   1.412       .  A
C1377      C1382   1.405       .  A
C1377      H1384   1.084       .  S
C1378      C1379   1.404       .  A
C1379      C1380   1.400       .  A
C1379      N1386   1.432       .  S
C1380      C1381   1.411       .  A
C1380      H1385   1.084       .  S
C1381      C1382   1.407       .  A
C1382      N1383   1.432       .  S
N1383      O1387   1.262       .  A
N1383      O1388   1.262       .  A
N1386      O1390   1.262       .  A
N1386      O1389   1.262       .  A
C1391      C1392   1.404       .  A
C1391      C1396   1.404       .  A
C1391      H1398   1.084       .  S
C1392      C1393   1.417       .  A
C1393      C1394   1.403       .  A
C1393      N1400   1.431       .  S
C1394      C1395   1.401       .  A
C1394      H1399   1.085       .  S
C1395      C1396   1.412       .  A
C1396      N1397   1.432       .  S
N1397      O1401   1.262       .  A
N1397      O1402   1.261       .  A
N1400      O1404   1.262       .  A
C1405      C1406   1.399       .  A
C1405      C1410   1.405       .  A
C1405      H1412   1.084       .  S
C1406      C1407   1.423       .  A
C1407      C1408   1.409       .  A
C1407      N1414   1.434       .  S
C1408      C1409   1.400       .  A
C1408      H1413   1.084       .  S
C1409      C1410   1.422       .  A
C1410      N1411   1.432       .  S
N1411      O1415   1.262       .  A
N1411      O1416   1.262       .  A
N1414      O1418   1.263       .  A
N1414      O1417   1.262       .  A
C1419      C1420   1.402       .  A
C1419      C1424   1.400       .  A
C1419      H1426   1.084       .  S
C1420      C1421   1.409       .  A
C1421      C1422   1.404       .  A
C1421      N1428   1.437       .  S
C1422      C1423   1.404       .  A
C1422      H1427   1.084       .  S
C1423      C1424   1.410       .  A
C1424      N1425   1.433       .  S
N1425      O1429   1.262       .  A
N1425      O1430   1.262       .  A
N1428      O1432   1.263       .  A
N1428      O1431   1.262       .  A
C1433      C1434   1.408       .  A
C1433      C1438   1.401       .  A
C1433      H1440   1.084       .  S
C1434      C1435   1.402       .  A
C1435      C1436   1.394       .  A
C1435      N1442   1.429       .  S
C1436      C1437   1.409       .  A
C1436      H1441   1.084       .  S
C1437      C1438   1.406       .  A
C1438      N1439   1.429       .  S
N1439      O1443   1.262       .  A
N1439      O1444   1.262       .  A
N1442      O1445   1.262       .  A
C1447      C1448   1.397       .  A
C1447      C1452   1.405       .  A
C1447      H1454   1.084       .  S
C1448      C1449   1.418       .  A
C1449      C1450   1.400       .  A
C1449      N1456   1.434       .  S
C1450      C1451   1.399       .  A
C1450      H1455   1.084       .  S
C1451      C1452   1.424       .  A
C1452      N1453   1.431       .  S
N1453      O1457   1.262       .  A
N1453      O1458   1.262       .  A
N1456      O1460   1.262       .  A
N1456      O1459   1.262       .  A
C1461      C1462   1.415       .  A
C1461      C1466   1.405       .  A
C1461      H1468   1.084       .  S
C1462      C1463   1.408       .  A
C1463      C1464   1.404       .  A
C1463      N1470   1.429       .  S
C1464      C1465   1.415       .  A
C1464      H1469   1.084       .  S
C1465      C1466   1.409       .  A
C1466      N1467   1.429       .  S
N1467      O1471   1.262       .  A
N1467      O1472   1.262       .  A
N1470      O1474   1.262       .  A
N1470      O1473   1.262       .  A
C1475      C1480   1.401       .  A
C1475      H1482   1.085       .  S
C1476      C1477   1.419   1_556  A
C1477      N1484   1.440       .  S
C1478      C1479   1.399       .  A
C1479      C1480   1.421       .  A
C1480      N1481   1.437       .  S
N1481      O1485   1.262       .  A
N1481      O1486   1.263       .  A
N1484      O1488   1.263       .  A
N1484      O1487   1.263       .  A
C1489      C1490   1.396       .  A
C1489      C1494   1.405       .  A
C1489      H1496   1.084       .  S
C1490      C1491   1.414       .  A
C1491      C1492   1.396       .  A
C1491      N1498   1.431       .  S
C1492      C1493   1.399       .  A
C1492      H1497   1.084       .  S
C1493      C1494   1.424       .  A
C1494      N1495   1.428       .  S
N1495      O1499   1.261       .  A
N1498      O1502   1.262       .  A
N1498      O1501   1.262       .  A
C1503      C1504   1.414       .  A
C1503      C1508   1.397       .  A
C1503      H1510   1.084       .  S
C1504      C1505   1.410       .  A
C1505      C1506   1.405       .  A
C1505      N1512   1.432       .  S
C1506      C1507   1.411       .  A
C1506      H1511   1.085       .  S
C1507      C1508   1.401       .  A
C1508      N1509   1.429       .  S
N1509      O1513   1.262       .  A
N1509      O1514   1.262       .  A
N1512      O1516   1.262       .  A
C1517      C1518   1.398       .  A
C1517      C1522   1.404       .  A
C1517      H1524   1.084       .  S
C1518      C1519   1.422       .  A
C1519      C1520   1.401       .  A
C1519      N1526   1.431       .  S
C1520      C1521   1.397       .  A
C1520      H1525   1.084       .  S
C1521      C1522   1.422       .  A
C1522      N1523   1.433       .  S
N1523      O1527   1.262       .  A
N1523      O1528   1.262       .  A
N1526      O1530   1.262       .  A
N1526      O1529   1.262       .  A
C1531      C1532   1.394       .  A
C1531      C1536   1.400       .  A
C1531      H1538   1.084   1_556  S
C1532      C1533   1.423       .  A
C1533      C1534   1.407       .  A
C1534      C1535   1.398       .  A
C1534      H1539   1.084       .  S
C1535      C1536   1.426       .  A
C1536      N1537   1.431       .  S
N1537      O1541   1.262   1_556  A
N1537      O1542   1.262       .  A
N1540      O1544   1.261       .  A
N1540      O1543   1.262       .  A
C1545      C1546   1.401       .  A
C1545      C1550   1.400       .  A
C1545      H1552   1.084       .  S
C1546      C1547   1.425       .  A
C1547      C1548   1.399       .  A
C1547      N1554   1.430       .  S
C1548      C1549   1.393       .  A
C1548      H1553   1.084       .  S
C1549      C1550   1.413       .  A
C1550      N1551   1.430       .  S
N1551      O1555   1.262       .  A
N1551      O1556   1.262       .  A
N1554      O1558   1.262       .  A
N1554      O1557   1.262       .  A
C1559      C1560   1.413       .  A
C1559      C1564   1.405       .  A
C1559      H1566   1.084       .  S
C1560      C1561   1.401       .  A
C1561      C1562   1.396       .  A
C1561      N1568   1.429       .  S
C1562      C1563   1.413       .  A
C1562      H1567   1.084       .  S
C1563      C1564   1.404       .  A
C1564      N1565   1.429       .  S
N1568      O1572   1.262       .  A
N1568      O1571   1.262       .  A
C1573      C1574   1.409       .  A
C1573      C1578   1.402       .  A
C1573      H1580   1.084       .  S
C1574      C1575   1.404       .  A
C1575      C1576   1.401       .  A
C1575      N1582   1.429       .  S
C1576      C1577   1.410       .  A
C1576      H1581   1.084       .  S
C1577      C1578   1.409       .  A
C1578      N1579   1.437       .  S
N1579      O1583   1.263       .  A
N1579      O1584   1.263       .  A
N1582      O1586   1.262       .  A
N1582      O1585   1.262       .  A
C1587      C1588   1.400       .  A
C1587      C1592   1.400       .  A
C1587      H1594   1.083       .  S
C1588      C1589   1.425       .  A
C1589      C1590   1.403       .  A
C1590      C1591   1.395       .  A
C1590      H1595   1.084       .  S
C1591      C1592   1.415       .  A
C1592      N1593   1.430       .  S
N1593      O1597   1.262       .  A
N1593      O1598   1.261       .  A
N1596      O1599   1.262       .  A
C1601      C1602   1.410       .  A
C1601      C1606   1.401       .  A
C1601      H1608   1.084       .  S
C1602      C1603   1.402       .  A
C1603      C1604   1.403       .  A
C1603      N1610   1.429       .  S
C1604      C1605   1.414       .  A
C1604      H1609   1.081       .  S
C1605      C1606   1.407       .  A
C1606      N1607   1.429       .  S
N1607      O1611   1.262       .  A
N1607      O1612   1.262       .  A
N1610      O1614   1.261       .  A
N1610      O1613   1.262       .  A
C1615      C1620   1.407   1_655  A
C1616      C1617   1.405   1_655  A
C1617      N1624   1.428       .  S
C1618      C1619   1.417       .  A
C1618      H1623   1.084       .  S
C1619      C1620   1.408       .  A
C1620      N1621   1.429       .  S
N1621      O1625   1.262       .  A
N1621      O1626   1.262   1_455  A
N1624      O1628   1.262   1_556  A
N1624      O1627   1.261       .  A
C1629      C1630   1.412   1_455  A
C1629      C1634   1.403       .  A
C1629      H1636   1.085       .  S
C1630      C1631   1.409       .  A
C1631      C1632   1.403       .  A
C1631      N1638   1.438       .  S
C1632      C1633   1.412   1_655  A
C1632      H1637   1.085       .  S
C1633      C1634   1.409       .  A
C1634      N1635   1.435       .  S
N1635      O1639   1.262       .  A
N1635      O1640   1.263       .  A
N1638      O1642   1.262       .  A
N1638      O1641   1.263       .  A
C1643      C1644   1.394       .  A
C1643      C1648   1.399       .  A
C1643      H1650   1.084       .  S
C1644      C1645   1.417       .  A
C1645      C1646   1.401       .  A
C1645      N1652   1.429       .  S
C1646      C1647   1.398       .  A
C1646      H1651   1.084       .  S
C1647      C1648   1.424       .  A
C1648      N1649   1.430       .  S
N1649      O1653   1.262       .  A
N1649      O1654   1.262       .  A
N1652      O1656   1.262       .  A
N1652      O1655   1.262       .  A
C1657      C1658   1.414       .  A
C1657      C1662   1.402       .  A
C1657      H1664   1.084       .  S
C1658      C1659   1.419       .  A
C1659      C1660   1.406       .  A
C1659      N1666   1.435       .  S
C1660      C1661   1.402       .  A
C1660      H1665   1.085       .  S
C1661      C1662   1.401       .  A
C1662      N1663   1.429       .  S
N1663      O1667   1.262       .  A
N1663      O1668   1.262       .  A
N1666      O1670   1.263       .  A
N1666      O1669   1.262       .  A
C1671      C1672   1.417       .  A
C1671      C1676   1.402       .  A
C1671      H1678   1.083       .  S
C1672      C1673   1.406       .  A
C1673      C1674   1.402       .  A
C1673      N1680   1.429       .  S
C1674      C1675   1.417       .  A
C1674      H1679   1.084       .  S
C1675      C1676   1.406       .  A
C1676      N1677   1.429       .  S
N1677      O1681   1.262       .  A
N1677      O1682   1.262       .  A
N1680      O1684   1.262       .  A
N1680      O1683   1.262       .  A
C1685      C1686   1.389       .  A
C1685      C1690   1.399       .  A
C1685      H1692   1.084       .  S
C1686      C1687   1.428       .  A
C1687      C1688   1.397       .  A
C1687      N1694   1.433       .  S
C1688      C1689   1.389       .  A
C1688      H1693   1.084       .  S
C1689      C1690   1.430       .  A
C1690      N1691   1.435       .  S
N1691      O1695   1.262       .  A
N1691      O1696   1.262       .  A
N1694      O1698   1.262       .  A
N1694      O1697   1.262       .  A
C1699      C1700   1.412       .  A
C1699      C1704   1.399       .  A
C1699      H1706   1.084       .  S
C1700      C1701   1.405       .  A
C1701      C1702   1.405       .  A
C1701      N1708   1.429       .  S
C1702      C1703   1.413       .  A
C1702      H1707   1.084       .  S
C1703      C1704   1.403       .  A
C1704      N1705   1.429       .  S
N1705      O1709   1.262       .  A
N1705      O1710   1.262       .  A
N1708      O1712   1.262       .  A
N1708      O1711   1.262       .  A
C1713      C1714   1.410       .  A
C1713      C1718   1.401       .  A
C1713      H1720   1.085       .  S
C1714      C1715   1.403       .  A
C1715      C1716   1.405       .  A
C1715      N1722   1.430       .  S
C1716      C1717   1.415       .  A
C1716      H1721   1.084       .  S
C1717      C1718   1.406       .  A
C1718      N1719   1.430       .  S
N1719      O1723   1.262       .  A
N1719      O1724   1.262       .  A
N1722      O1726   1.262       .  A
N1722      O1725   1.262       .  A
C1727      C1728   1.401       .  A
C1727      C1732   1.402       .  A
C1727      H1734   1.085       .  S
C1728      C1729   1.414       .  A
C1729      C1730   1.407       .  A
C1729      N1736   1.434       .  S
C1730      C1731   1.404       .  A
C1730      H1735   1.085       .  S
C1731      C1732   1.415       .  A
C1732      N1733   1.432       .  S
N1733      O1737   1.261       .  A
N1733      O1738   1.262       .  A
N1736      O1740   1.262       .  A
N1736      O1739   1.262       .  A
C1741      C1742   1.396       .  A
C1741      C1746   1.402       .  A
C1741      H1748   1.084       .  S
C1742      C1743   1.424       .  A
C1743      C1744   1.406       .  A
C1743      N1750   1.435       .  S
C1744      C1745   1.398       .  A
C1744      H1749   1.084       .  S
C1745      C1746   1.424       .  A
C1746      N1747   1.435       .  S
N1747      O1751   1.262       .  A
N1747      O1752   1.262       .  A
N1750      O1754   1.262       .  A
N1750      O1753   1.263       .  A
C1755      C1756   1.391       .  A
C1755      C1760   1.399       .  A
C1755      H1762   1.084       .  S
C1756      C1757   1.421       .  A
C1757      C1758   1.398       .  A
C1757      N1764   1.430       .  S
C1758      C1759   1.391       .  A
C1758      H1763   1.084       .  S
C1759      C1760   1.422       .  A
C1760      N1761   1.430       .  S
N1761      O1765   1.262       .  A
N1761      O1766   1.262       .  A
N1764      O1768   1.261       .  A
N1764      O1767   1.262       .  A
C1769      C1770   1.405       .  A
C1769      C1774   1.404       .  A
C1769      H1776   1.084       .  S
C1770      C1771   1.418       .  A
C1771      C1772   1.407       .  A
C1771      N1778   1.429       .  S
C1772      C1773   1.402       .  A
C1772      H1777   1.084       .  S
C1773      C1774   1.411       .  A
C1774      N1775   1.429       .  S
N1775      O1779   1.262       .  A
N1775      O1780   1.262       .  A
N1778      O1782   1.262       .  A
N1778      O1781   1.262       .  A
C1783      C1784   1.393       .  A
C1783      C1788   1.399       .  A
C1783      H1790   1.084       .  S
C1784      C1785   1.415       .  A
C1785      C1786   1.401       .  A
C1785      N1792   1.431       .  S
C1786      C1787   1.400       .  A
C1786      H1791   1.084       .  S
C1787      C1788   1.425       .  A
C1788      N1789   1.431       .  S
N1789      O1793   1.262       .  A
N1789      O1794   1.262       .  A
N1792      O1796   1.262       .  A
N1792      O1795   1.262       .  A
C1797      C1798   1.407       .  A
C1797      C1802   1.401       .  A
C1797      H1804   1.094       .  S
C1798      C1799   1.404       .  A
C1799      C1800   1.405       .  A
C1799      N1806   1.431       .  S
C1800      C1801   1.414       .  A
C1800      H1805   1.095       .  S
C1801      C1802   1.411       .  A
C1802      N1803   1.431       .  S
N1803      O1807   1.262       .  A
N1803      O1808   1.262       .  A
N1806      O1810   1.262       .  A
N1806      O1809   1.262       .  A
C1811      C1812   1.412       .  A
C1811      C1816   1.404       .  A
C1811      H1818   1.084       .  S
C1812      C1813   1.404       .  A
C1813      C1814   1.402       .  A
C1813      N1820   1.428       .  S
C1814      C1815   1.411       .  A
C1814      H1819   1.084       .  S
C1815      C1816   1.406       .  A
C1816      N1817   1.432       .  S
N1817      O1821   1.262       .  A
N1817      O1822   1.262       .  A
N1820      O1824   1.262       .  A
N1820      O1823   1.262       .  A
C1825      C1826   1.414       .  A
C1825      C1830   1.406       .  A
C1825      H1832   1.085       .  S
C1826      C1827   1.406       .  A
C1827      C1828   1.400       .  A
C1827      N1834   1.429       .  S
C1828      C1829   1.411       .  A
C1828      H1833   1.086       .  S
C1829      C1830   1.404       .  A
C1830      N1831   1.428       .  S
N1831      O1835   1.261       .  A
N1831      O1836   1.262       .  A
N1834      O1838   1.262       .  A
N1834      O1837   1.262       .  A
C1839      C1840   1.398       .  A
C1839      C1844   1.402       .  A
C1839      H1846   1.084       .  S
C1840      C1841   1.425       .  A
C1841      C1842   1.401       .  A
C1841      N1848   1.431       .  S
C1842      C1843   1.397       .  A
C1842      H1847   1.084       .  S
C1843      C1844   1.425       .  A
C1844      N1845   1.430       .  S
N1845      O1849   1.262       .  A
N1845      O1850   1.262       .  A
N1848      O1852   1.262       .  A
N1848      O1851   1.262       .  A
C1853      C1854   1.412       .  A
C1853      C1858   1.403       .  A
C1853      H1860   1.085       .  S
C1854      C1855   1.410       .  A
C1855      C1856   1.403       .  A
C1855      N1862   1.437       .  S
C1856      C1857   1.411       .  A
C1856      H1861   1.085       .  S
C1857      C1858   1.408       .  A
C1858      N1859   1.438       .  S
N1859      O1863   1.263       .  A
N1859      O1864   1.262       .  A
N1862      O1866   1.262       .  A
N1862      O1865   1.262       .  A
C1867      C1868   1.406       .  A
C1867      C1872   1.399       .  A
C1867      H1874   1.085       .  S
C1868      C1869   1.402       .  A
C1869      C1870   1.403       .  A
C1869      N1876   1.433       .  S
C1870      C1871   1.416       .  A
C1870      H1875   1.083       .  S
C1871      C1872   1.411       .  A
C1872      N1873   1.431       .  S
N1873      O1877   1.262       .  A
N1873      O1878   1.262       .  A
N1876      O1880   1.262       .  A
N1876      O1879   1.262       .  A
C1881      C1882   1.413       .  A
C1881      C1886   1.400       .  A
C1881      H1888   1.084       .  S
C1882      C1883   1.407       .  A
C1883      C1884   1.407       .  A
C1883      N1890   1.431       .  S
C1884      C1885   1.413       .  A
C1884      H1889   1.084       .  S
C1885      C1886   1.408       .  A
C1886      N1887   1.436       .  S
N1887      O1891   1.262       .  A
N1887      O1892   1.263       .  A
N1890      O1894   1.262       .  A
N1890      O1893   1.262       .  A
C1895      C1896   1.404       .  A
C1895      C1900   1.407       .  A
C1895      H1902   1.084       .  S
C1896      C1897   1.413       .  A
C1897      C1898   1.401       .  A
C1897      N1904   1.431       .  S
C1898      C1899   1.403       .  A
C1898      H1903   1.085       .  S
C1899      C1900   1.415       .  A
N1901      O1905   1.262       .  A
N1901      O1906   1.262       .  A
N1904      O1908   1.262       .  A
N1904      O1907   1.262       .  A
C1909      C1910   1.416   1_545  A
C1909      H1916   1.084       .  S
C1910      C1911   1.411   1_655  A
C1911      N1918   1.432       .  S
C1912      C1913   1.417   1_565  A
C1912      H1917   1.083       .  S
C1913      C1914   1.409   1_556  A
C1914      N1915   1.429       .  S
N1915      O1919   1.262   1_454  A
N1915      O1920   1.262       .  A
N1918      O1922   1.262       .  A
N1918      O1921   1.262       .  A
C1923      C1924   1.402   1_565  A
C1923      C1928   1.399   1_455  A
C1923      H1930   1.086       .  S
C1924      C1925   1.408       .  A
C1925      C1926   1.399   1_455  A
C1925      N1932   1.429       .  S
C1926      C1927   1.404   1_545  A
C1926      H1931   1.086       .  S
C1927      C1928   1.409       .  A
C1928      N1929   1.429       .  S
N1929      O1933   1.262   1_655  A
N1929      O1934   1.262       .  A
N1932      O1936   1.261   1_455  A
N1932      O1935   1.262       .  A
C1937      C1938   1.405       .  A
C1937      C1942   1.402       .  A
C1937      H1944   1.084       .  S
C1938      C1939   1.419       .  A
C1939      C1940   1.406       .  A
C1939      N1946   1.434       .  S
C1940      C1941   1.400       .  A
C1940      H1945   1.084       .  S
C1941      C1942   1.409       .  A
C1942      N1943   1.429       .  S
N1943      O1947   1.261       .  A
N1943      O1948   1.262       .  A
N1946      O1950   1.263       .  A
N1946      O1949   1.262       .  A
C1951      C1952   1.409       .  A
C1951      C1956   1.405       .  A
C1951      H1958   1.084       .  S
C1952      C1953   1.405       .  A
C1953      C1954   1.401       .  A
C1953      N1960   1.433       .  S
C1954      C1955   1.411       .  A
C1954      H1959   1.084       .  S
C1955      C1956   1.408       .  A
C1956      N1957   1.429       .  S
N1957      O1961   1.262       .  A
N1957      O1962   1.262       .  A
N1960      O1964   1.262       .  A
N1960      O1963   1.262       .  A
C1965      C1966   1.407       .  A
C1965      C1970   1.404       .  A
C1965      H1972   1.084       .  S
C1966      C1967   1.404       .  A
C1967      C1968   1.406       .  A
C1967      N1974   1.432       .  S
C1968      C1969   1.416       .  A
C1968      H1973   1.083       .  S
C1969      C1970   1.413       .  A
C1970      N1971   1.431       .  S
N1971      O1975   1.262       .  A
N1971      O1976   1.262       .  A
N1974      O1978   1.262       .  A
N1974      O1977   1.262       .  A
C1979      C1980   1.399       .  A
C1979      C1984   1.407       .  A
C1979      H1986   1.084       .  S
C1980      C1981   1.427   1_565  A
C1981      C1982   1.410       .  A
C1981      N1988   1.430       .  S
C1982      C1983   1.401       .  A
C1982      H1987   1.084       .  S
C1983      C1984   1.427   1_545  A
C1984      N1985   1.431       .  S
N1985      O1989   1.262       .  A
N1985      O1990   1.262       .  A
N1988      O1992   1.262       .  A
N1988      O1991   1.262       .  A
C1993      C1994   1.403   1_545  A
C1993      C1998   1.399       .  A
C1993      H2000   1.084       .  S
C1994      C1995   1.411       .  A
C1995      N2002   1.430       .  S
C1996      C1997   1.401   1_565  A
C1996      H2001   1.084       .  S
C1998      N1999   1.430       .  S
N1999      O2003   1.261       .  A
N2002      O2005   1.262       .  A
C2007      C2008   1.410       .  A
C2007      C2012   1.400       .  A
C2007      H2014   1.085       .  S
C2008      C2009   1.402       .  A
C2009      C2010   1.403       .  A
C2009      N2016   1.432       .  S
C2010      C2011   1.413       .  A
C2010      H2015   1.084       .  S
C2011      C2012   1.404       .  A
C2012      N2013   1.429       .  S
N2013      O2017   1.262       .  A
N2013      O2018   1.261       .  A
N2016      O2020   1.262       .  A
N2016      O2019   1.262       .  A
C2021      C2022   1.411       .  A
C2021      C2026   1.403       .  A
C2021      H2028   1.084       .  S
C2022      C2023   1.404       .  A
C2023      C2024   1.399       .  A
C2023      N2030   1.431       .  S
C2024      C2025   1.410       .  A
C2024      H2029   1.084       .  S
C2025      C2026   1.404       .  A
C2026      N2027   1.428       .  S
N2027      O2031   1.262       .  A
N2027      O2032   1.262       .  A
N2030      O2034   1.262       .  A
N2030      O2033   1.262       .  A
C2035      C2036   1.415       .  A
C2035      C2040   1.408       .  A
C2035      H2042   1.083       .  S
C2036      C2037   1.413       .  A
C2037      C2038   1.401       .  A
C2037      N2044   1.429       .  S
C2038      C2039   1.404       .  A
C2038      H2043   1.085       .  S
C2039      C2040   1.407       .  A
C2040      N2041   1.435       .  S
N2041      O2045   1.262       .  A
N2041      O2046   1.262       .  A
N2044      O2048   1.262       .  A
N2044      O2047   1.262       .  A
