geometry optimzed in LAMMPS
_audit_creation_date              2020-12-01 
_audit_creation_method            'lammps2cif' 
_symmetry_space_group_name_H-M    'P1' 
_symmetry_Int_Tables_number       1 
_symmetry_cell_setting            triclinic 
loop_ 
_symmetry_equiv_pos_as_xyz 
  x,y,z 
_cell_length_a                    64.09451345 
_cell_length_b                    64.54949594736912 
_cell_length_c                    40.71955246355034 
_cell_angle_alpha                 89.8598826561452 
_cell_angle_beta                  89.97703654975223 
_cell_angle_gamma                 89.88625551773343 
loop_ 
_atom_site_label 
_atom_site_type_symbol 
_atom_site_fract_x 
_atom_site_fract_y 
_atom_site_fract_z 
_atom_site_charge 
Zr1        Zr  0.59140724  0.05809345  0.66442779     2.17500
O2          O  0.61600367  0.03568990  0.63558517    -0.51800
O3          O  0.56762624  0.03945542  0.62674199    -0.75000
O4          O  0.59868255  0.02567839  0.69500303    -0.81700
O5          O  0.60561132  0.10515863  0.61094996    -0.83500
O6          O  0.58072179  0.02671672  0.74311923    -0.79100
O7          O  0.61643335  0.07258702  0.62382294    -0.90800
O8          O  0.53441478  0.04955691  0.63748849    -0.76700
O9          O  0.56027245  0.05386999  0.69599452    -0.86200
O10         O  0.56645425  0.08219509  0.64305821    -0.85900
O11         O  0.60080683  0.06530155  0.72095967    -0.72700
O12         O  0.60573068  0.09206267  0.67294262    -0.84800
Zr13       Zr  0.55927167  0.11911559  0.73855193     2.26400
Zr14       Zr  0.56899831  0.06182094  0.75182476     2.06300
Zr15       Zr  0.58057775  0.11610669  0.65186690     2.10000
Zr16       Zr  0.53562820  0.07809302  0.67509758     1.78800
O17         O  0.60534952  0.14409013  0.64273455    -0.93600
O18         O  0.51061718  0.05390754  0.69889404    -0.41400
O19         O  0.54927191  0.11213016  0.68300998    -0.78000
O20         O  0.54366826  0.08567422  0.73092772    -0.96700
O21         O  0.58388219  0.09523201  0.76036961    -0.90000
O22         O  0.59018414  0.12400122  0.70734162    -0.92900
C23         C  0.54770729  0.03830838  0.62234858     1.00900
C24         C  0.61781054  0.08956714  0.60700250     1.13800
C25         C  0.59208413  0.01734095  0.72190125     1.04600
O26         O  0.54286909  0.03679191  0.76942920    -0.95000
O27         O  0.54784935  0.07435467  0.79752500    -0.90800
O28         O  0.54341857  0.10900424  0.79000366    -0.83900
C29         C  0.54068933  0.09215205  0.80616559     1.11200
O30         O  0.64823390  0.08318312  0.71813359    -0.97000
Zr31       Zr  0.61467891  0.09960513  0.72874652     1.88900
O32         O  0.58221633  0.13872826  0.77429924    -0.73600
O33         O  0.59159519  0.05566557  0.79894331    -0.52900
O34         O  0.63031561  0.08559260  0.77861068    -0.97600
O35         O  0.64056906  0.12299015  0.70535958    -0.54800
O36         O  0.61564173  0.12783212  0.76842088    -0.74200
C37         C  0.60168757  0.13944494  0.78159752     0.98200
O38         O  0.52903569  0.13759863  0.76037586    -0.63000
O39         O  0.56277510  0.12196024  0.59973686    -0.57800
O40         O  0.55171448  0.15130972  0.70961272    -0.94500
O41         O  0.56085965  0.14831891  0.65593223    -0.92900
O42         O  0.52064657  0.09358084  0.62585676    -0.93200
O43         O  0.50109032  0.09251060  0.68518306    -0.92000
C44         C  0.55251676  0.15815663  0.67999168     1.17000
H45         H  0.56384973  0.07985068  0.61998619     0.33000
H46         H  0.53074069  0.08466601  0.74304307     0.43800
H47         H  0.59516729  0.13806690  0.70914247     0.37300
H48         H  0.61114596  0.05557563  0.72881835     0.33800
H49         H  0.50402235  0.04687362  0.67998550     0.25600
H50         H  0.58444316  0.04472635  0.81174926     0.31600
H51         H  0.62068788  0.08963801  0.79651806     0.37500
H52         H  0.52200161  0.10871197  0.62917922     0.31900
H53         H  0.57031435  0.13369381  0.58951824     0.30800
H54         H  0.60232210  0.14913732  0.62025576     0.32500
H55         H  0.64776613  0.12909319  0.72453969     0.31500
H56         H  0.50340761  0.10343022  0.70181889     0.35400
H57         H  0.53415493  0.15151224  0.76661617     0.28200
H58         H  0.60899944  0.02208716  0.63364993     0.32400
H59         H  0.64487997  0.07101347  0.70436403     0.35300
H60         H  0.56636190  0.10990822  0.58584283     0.27900
H61         H  0.51957517  0.13997160  0.74150937     0.40700
H62         H  0.54865611  0.03050336  0.78968569     0.30800
H63         H  0.51926583  0.04305433  0.70945155     0.38400
H64         H  0.63245973  0.13460034  0.69584895     0.30300
H65         H  0.60410439  0.04873601  0.78982283     0.30300
H66         H  0.62765235  0.03334472  0.65113890     0.30600
Zr67       Zr  0.40870715  0.91833456  0.36458772     2.17500
O68         O  0.38350313  0.94374240  0.38461061    -0.51800
O69         O  0.43219491  0.93714202  0.40259099    -0.75000
O70         O  0.38660627  0.90540407  0.41043269    -0.81700
O71         O  0.41217779  0.94603207  0.28016846    -0.83500
O72         O  0.39464475  0.87165866  0.42070418    -0.79100
O73         O  0.39831882  0.94919031  0.33130572    -0.90800
O74         O  0.46480454  0.92395867  0.39696168    -0.76700
O75         O  0.43351626  0.89415311  0.38648770    -0.86200
O76         O  0.44022116  0.92274808  0.33379969    -0.85900
O77         O  0.39395596  0.88420770  0.35583266    -0.72700
O78         O  0.40055932  0.91055406  0.30804886    -0.84800
Zr79       Zr  0.44159597  0.85675865  0.29239753     2.26400
Zr80       Zr  0.41907989  0.86017226  0.37847948     2.06300
Zr81       Zr  0.43242713  0.91447932  0.27779303     2.10000
Zr82       Zr  0.46460958  0.89829848  0.35480933     1.78800
O83         O  0.41743581  0.92202279  0.22413229    -0.93600
O84         O  0.48322513  0.88211927  0.40035433    -0.41400
O85         O  0.45723868  0.89025014  0.29886377    -0.78000
O86         O  0.45079564  0.86449028  0.34821184    -0.96700
O87         O  0.41021833  0.85214032  0.32269901    -0.90000
O88         O  0.41757478  0.88081859  0.26912238    -0.92900
C89         C  0.45176233  0.93640881  0.41009824     1.00900
C90         C  0.40118002  0.95572853  0.30153115     1.13800
C91         C  0.38409111  0.88824891  0.42644160     1.04600
O92         O  0.43721271  0.85630879  0.43071385    -0.95000
O93         O  0.43807694  0.82697309  0.37384047    -0.90800
O94         O  0.45102265  0.82545421  0.32195832    -0.83900
C95         C  0.44868313  0.81797126  0.35097314     1.11200
O96         O  0.35245582  0.89283326  0.30782841    -0.97000
Zr97       Zr  0.38638614  0.87658916  0.29986197     1.88900
O98         O  0.41894973  0.83525742  0.25881162    -0.73600
O99         O  0.39538415  0.83154503  0.38984888    -0.52900
O100        O  0.35988546  0.85351530  0.32227236    -0.97600
O101        O  0.37117482  0.89027836  0.24937741    -0.54800
O102        O  0.38562442  0.84619733  0.26520197    -0.74200
C103        C  0.39929656  0.83384868  0.25321316     0.98200
O104        O  0.47012388  0.83407237  0.27518243    -0.63000
O105        O  0.45808941  0.94224852  0.27414058    -0.57800
O106        O  0.45953714  0.86801706  0.24305794    -0.94500
O107        O  0.45628056  0.90266722  0.23502276    -0.92900
O108        O  0.48787873  0.92509765  0.33408676    -0.93200
O109        O  0.49861053  0.88409051  0.34019309    -0.92000
C110        C  0.46353765  0.88475896  0.22728584     1.17000
H111        H  0.44535355  0.93677115  0.33582067     0.33000
H112        H  0.46170963  0.85547678  0.35617581     0.43800
H113        H  0.41543136  0.87816416  0.24604803     0.37300
H114        H  0.38043698  0.88269821  0.36591351     0.33800
H115        H  0.49448288  0.89198466  0.40595440     0.25600
H116        H  0.39888550  0.82712041  0.41249180     0.31600
H117        H  0.36253321  0.85301393  0.34618706     0.37500
H118        H  0.49635563  0.92925040  0.35329141     0.31900
H119        H  0.47062042  0.93587998  0.26412340     0.30800
H120        H  0.42474872  0.93466031  0.21655269     0.32500
H121        H  0.36911882  0.87811586  0.23498514     0.31500
H122        H  0.49718462  0.87979539  0.31697353     0.35400
H123        H  0.46701740  0.82995754  0.25228304     0.28200
H124        H  0.38609762  0.94504362  0.40848956     0.32400
H125        H  0.35413158  0.90143656  0.32774730     0.35300
H126        H  0.45262398  0.95172869  0.25702505     0.27900
H127        H  0.48271734  0.84290259  0.27379316     0.40700
H128        H  0.43795795  0.84118354  0.43465053     0.30800
H129        H  0.47343615  0.88290542  0.41912227     0.38400
H130        H  0.38248101  0.89826820  0.23874117     0.30300
H131        H  0.38137751  0.83790377  0.39177756     0.30300
H132        H  0.36966546  0.93703491  0.38278545     0.30600
Zr133      Zr  0.68042245  0.82754400  0.90865754     2.17500
O134        O  0.70239318  0.85308750  0.88112016    -0.51800
O135        O  0.70107333  0.80460471  0.87300480    -0.75000
O136        O  0.71187114  0.83635544  0.94038393    -0.81700
O137        O  0.63354932  0.84119952  0.85281216    -0.83500
O138        O  0.70876827  0.82378109  0.99231662    -0.79100
O139        O  0.66591199  0.85198259  0.86771091    -0.90800
O140        O  0.69504651  0.77158859  0.88958449    -0.76700
O141        O  0.68552954  0.79772600  0.94259800    -0.86200
O142        O  0.65852317  0.80110233  0.88618200    -0.85900
O143        O  0.67075531  0.83771294  0.96379650    -0.72700
O144        O  0.64533802  0.84006371  0.91294285    -0.84800
Zr145      Zr  0.61845347  0.79471118  0.97818003     2.26400
Zr146      Zr  0.67504651  0.80711221  0.99703644     2.06300
Zr147      Zr  0.62337837  0.81381621  0.89053344     2.10000
Zr148      Zr  0.66330410  0.77163964  0.92102223     1.78800
O149        O  0.59216811  0.83358078  0.87686344    -0.93600
O150        O  0.68628313  0.74636793  0.94720039    -0.41400
O151        O  0.62835200  0.78403843  0.92423147    -0.78000
O152        O  0.65301686  0.78038604  0.97584056    -0.96700
O153        O  0.64033715  0.82060884  0.00083762    -0.90000
O154        O  0.61297432  0.82434606  0.94454541    -0.92900
C155        C  0.70486026  0.78500428  0.87240764     1.00900
C156        C  0.64907188  0.85369372  0.85045084     1.13800
C157        C  0.71882428  0.83340327  0.96970800     1.04600
O158        O  0.69998086  0.77953090  0.00852525    -0.95000
O159        O  0.66131394  0.78860885  0.04474508    -0.90800
O160        O  0.62736797  0.78246406  0.03248893    -0.83900
C161        C  0.64314747  0.78139664  0.05169157     1.11200
O162        O  0.65247490  0.88315960  0.95590404    -0.97000
Zr163      Zr  0.63546973  0.85016327  0.96699926     1.88900
O164        O  0.59428039  0.81724138  0.00704434    -0.73600
O165        O  0.68124710  0.82642839  0.04746531    -0.52900
O166        O  0.64635151  0.86703106  0.01765148    -0.97600
O167        O  0.61253082  0.87479794  0.93935356    -0.54800
O168        O  0.60495141  0.85056907  0.00229304    -0.74200
C169        C  0.59258939  0.83662870  0.01343018     0.98200
O170        O  0.59718897  0.76563581  0.99685114    -0.63000
O171        O  0.62305458  0.79737729  0.83672704    -0.57800
O172        O  0.59034364  0.78021211  0.94611096    -0.94500
O173        O  0.59319305  0.79062762  0.89303875    -0.92900
O174        O  0.65267519  0.75504187  0.87005680    -0.93200
O175        O  0.64696462  0.73799952  0.92927367    -0.92000
C176        C  0.58429169  0.78019398  0.91608733     1.17000
H177        H  0.66195512  0.79810486  0.86360610     0.33000
H178        H  0.65390803  0.76804591  0.98927590     0.43800
H179        H  0.59850216  0.82864465  0.94460607     0.37300
H180        H  0.67960189  0.84876361  0.97160343     0.33800
H181        H  0.69977683  0.75361923  0.94978591     0.25600
H182        H  0.69621096  0.82442147  0.05261686     0.31600
H183        H  0.63365813  0.87376513  0.02650859     0.37500
H184        H  0.66558461  0.74884054  0.86100160     0.31900
H185        H  0.62621526  0.78262228  0.84117731     0.30800
H186        H  0.59531067  0.84789762  0.88395085     0.32500
H187        H  0.61022420  0.88596457  0.95559188     0.31500
H188        H  0.63579293  0.74061098  0.94556206     0.35400
H189        H  0.60708846  0.75442843  0.00274621     0.28200
H190        H  0.71652250  0.84689126  0.88006703     0.32400
H191        H  0.66027107  0.88085346  0.93522320     0.35300
H192        H  0.60819721  0.79744712  0.83007058     0.27900
H193        H  0.59078422  0.77003414  0.01785309     0.40700
H194        H  0.71036290  0.78585424  0.02342110     0.30800
H195        H  0.68096104  0.74480622  0.96989228     0.38400
H196        H  0.59889477  0.86769018  0.93791402     0.30300
H197        H  0.68004635  0.84116790  0.04095335     0.30300
H198        H  0.70364418  0.86478622  0.89669357     0.30600
Zr199      Zr  0.82440947  0.64402475  0.62111627     2.17500
O200        O  0.79720172  0.62155432  0.64326879    -0.51800
O201        O  0.80563417  0.66690519  0.66013139    -0.75000
O202        O  0.83694100  0.62199820  0.66672714    -0.81700
O203        O  0.79648345  0.64667971  0.53705899    -0.83500
O204        O  0.86996262  0.63167109  0.67977169    -0.79100
O205        O  0.79458872  0.63217531  0.58791129    -0.90800
O206        O  0.81697998  0.69990691  0.65354525    -0.76700
O207        O  0.84724122  0.66952533  0.64317814    -0.86200
O208        O  0.81909909  0.67466153  0.58893042    -0.85900
O209        O  0.85903687  0.62968196  0.61344908    -0.72700
O210        O  0.83319973  0.63556479  0.56487847    -0.84800
Zr211      Zr  0.88567819  0.67816104  0.55094203     2.26400
Zr212      Zr  0.88167855  0.65542487  0.63676884     2.06300
Zr213      Zr  0.82842916  0.66661159  0.53324919     2.10000
Zr214      Zr  0.84221794  0.69997435  0.61048127     1.78800
O215        O  0.82320209  0.64857354  0.48143888    -0.93600
O216        O  0.85784236  0.72099315  0.65355916    -0.41400
O217        O  0.85118490  0.69229433  0.55514144    -0.78000
O218        O  0.87698690  0.68704860  0.60640909    -0.96700
O219        O  0.89105292  0.64716989  0.58130180    -0.90000
O220        O  0.86303573  0.65326939  0.52675439    -0.92900
C221        C  0.80544574  0.68635844  0.66735079     1.00900
C222        C  0.78735082  0.63545108  0.55878803     1.13800
C223        C  0.85364792  0.62040672  0.68424110     1.04600
O224        O  0.88541413  0.67484874  0.68758906    -0.95000
O225        O  0.91541867  0.67295457  0.63307862    -0.90800
O226        O  0.91738211  0.68604995  0.58133740    -0.83900
C227        C  0.92485983  0.68310019  0.61026383     1.11200
O228        O  0.85307955  0.58846150  0.56782806    -0.97000
Zr229      Zr  0.86805162  0.62251005  0.55763214     1.88900
O230        O  0.90902543  0.65669194  0.51913207    -0.73600
O231        O  0.90922133  0.63048158  0.64903709    -0.52900
O232        O  0.89356868  0.59867948  0.58097870    -0.97600
O233        O  0.85466708  0.60529782  0.50879165    -0.54800
O234        O  0.89806217  0.62336752  0.52071740    -0.74200
C235        C  0.91064844  0.63758490  0.51102766     0.98200
O236        O  0.90250982  0.70967083  0.53101424    -0.63000
O237        O  0.80022653  0.69132520  0.52305433    -0.57800
O238        O  0.87638657  0.69366369  0.49887737    -0.94500
O239        O  0.84175216  0.68914421  0.48937092    -0.92900
O240        O  0.81223981  0.72034966  0.59243051    -0.93200
O241        O  0.85424298  0.73306410  0.58854971    -0.92000
C242        C  0.85983016  0.69634917  0.48168004     1.17000
H243        H  0.80474722  0.67917449  0.59031661     0.33000
H244        H  0.88599022  0.69781411  0.61458271     0.43800
H245        H  0.86626601  0.65113356  0.50379202     0.37300
H246        H  0.86096328  0.61634286  0.62376374     0.33800
H247        H  0.84654966  0.73042417  0.66081108     0.25600
H248        H  0.90255089  0.61675237  0.64652841     0.31600
H249        H  0.89738258  0.58934339  0.56266102     0.37500
H250        H  0.80959003  0.73032687  0.61040046     0.31900
H251        H  0.80445028  0.69929953  0.50336822     0.30800
H252        H  0.81719718  0.65909501  0.46642943     0.32500
H253        H  0.86620824  0.60565087  0.49264551     0.31500
H254        H  0.84604205  0.74384689  0.60005071     0.35400
H255        H  0.90209415  0.71943484  0.54972045     0.28200
H256        H  0.79617358  0.62502187  0.66689649     0.32400
H257        H  0.84000452  0.59132068  0.57998178     0.35300
H258        H  0.78825245  0.68293849  0.51547899     0.27900
H259        H  0.91744893  0.70620878  0.52803590     0.40700
H260        H  0.89912306  0.67051633  0.69648547     0.30800
H261        H  0.85981607  0.71131150  0.67219678     0.38400
H262        H  0.84409282  0.61494100  0.49980100     0.30300
H263        H  0.91895072  0.63140036  0.63019701     0.30300
H264        H  0.80298727  0.60732170  0.64269553     0.30600
Zr265      Zr  0.09101041  0.05844889  0.86701553     2.17500
O266        O  0.11808544  0.03356936  0.88227780    -0.51800
O267        O  0.06914297  0.03986385  0.90756893    -0.75000
O268        O  0.11380598  0.07063607  0.91159190    -0.81700
O269        O  0.08048232  0.02905272  0.78687500    -0.83500
O270        O  0.10823476  0.10495998  0.92073107    -0.79100
O271        O  0.09927923  0.02732217  0.83410984    -0.90800
O272        O  0.03764612  0.05590278  0.90996382    -0.76700
O273        O  0.06946688  0.08443332  0.89145328    -0.86200
O274        O  0.05726539  0.05483491  0.84274023    -0.85900
O275        O  0.10694225  0.09147936  0.85419369    -0.72700
O276        O  0.09566192  0.06458995  0.80913199    -0.84800
Zr277      Zr  0.05629701  0.11956837  0.79730565     2.26400
Zr278      Zr  0.08470584  0.11746609  0.87837372     2.06300
Zr279      Zr  0.06169445  0.06151508  0.78520767     2.10000
Zr280      Zr  0.03600304  0.08102652  0.86671426     1.78800
O281        O  0.07292397  0.05057961  0.73078644    -0.93600
O282        O  0.02474264  0.09924891  0.91602541    -0.41400
O283        O  0.03939705  0.08722066  0.80894710    -0.78000
O284        O  0.05073494  0.11389465  0.85476815    -0.96700
O285        O  0.08989992  0.12362883  0.82094407    -0.90000
O286        O  0.07759595  0.09399036  0.77222997    -0.92900
C287        C  0.05069516  0.04225318  0.91974876     1.00900
C288        C  0.09328531  0.01986685  0.80627309     1.13800
C289        C  0.11733137  0.08765587  0.92710646     1.04600
O290        O  0.07257192  0.12776443  0.93262003    -0.95000
O291        O  0.06714993  0.15141647  0.87502375    -0.90800
O292        O  0.05210196  0.15263254  0.82455994    -0.83900
C293        C  0.05631115  0.16062797  0.85262270     1.11200
O294        O  0.14387335  0.07851248  0.80058403    -0.97000
Zr295      Zr  0.11104429  0.09746545  0.79648304     1.88900
O296        O  0.07733887  0.13799287  0.75741259    -0.73600
O297        O  0.11362924  0.14191134  0.87757730    -0.52900
O298        O  0.14035764  0.11858587  0.81433381    -0.97600
O299        O  0.12013740  0.08274439  0.74327427    -0.54800
O300        O  0.11063107  0.12610426  0.75744099    -0.74200
C301        C  0.09622423  0.13830555  0.74700089     0.98200
O302        O  0.02708812  0.14287167  0.78626475    -0.63000
O303        O  0.03340323  0.03634692  0.78467522    -0.57800
O304        O  0.03644425  0.10913020  0.74956127    -0.94500
O305        O  0.03869022  0.07435760  0.74215661    -0.92900
O306        O  0.00880514  0.05622446  0.85309850    -0.93200
O307        O  0.00162080  0.09673909  0.86088313    -0.92000
C308        C  0.03216880  0.09245529  0.73389934     1.17000
H309        H  0.05165042  0.04115426  0.84665353     0.33000
H310        H  0.04102921  0.12386086  0.86364647     0.43800
H311        H  0.07829650  0.09600750  0.74872076     0.37300
H312        H  0.12086848  0.09233552  0.86310979     0.33800
H313        H  0.01441151  0.08995173  0.92649910     0.25600
H314        H  0.11177502  0.15002007  0.85711170     0.31600
H315        H  0.13570446  0.13307506  0.81105472     0.37500
H316        H  0.00772759  0.05684038  0.82886329     0.31900
H317        H  0.03346415  0.03082042  0.76201251     0.30800
H318        H  0.08291003  0.06131874  0.72347927     0.32500
H319        H  0.12151853  0.06766130  0.74723620     0.31500
H320        H  0.00405004  0.10941259  0.84768840     0.35400
H321        H  0.02804005  0.14660587  0.76270784     0.28200
H322        H  0.11706573  0.03175959  0.90637890     0.32400
H323        H  0.14085440  0.06691509  0.81581489     0.35300
H324        H  0.03836518  0.02462490  0.79833119     0.27900
H325        H  0.01441947  0.13420025  0.78819137     0.40700
H326        H  0.08012528  0.14077634  0.93742356     0.30800
H327        H  0.03696572  0.09879410  0.93087395     0.38400
H328        H  0.13450795  0.08756649  0.73871829     0.30300
H329        H  0.11039537  0.15185075  0.89535250     0.30300
H330        H  0.13150376  0.04079685  0.87855191     0.30600
Zr331      Zr  0.90994220  0.91554346  0.16330346     2.17500
O332        O  0.88542479  0.93891565  0.13603318    -0.51800
O333        O  0.93382192  0.93276603  0.12425447    -0.75000
O334        O  0.90373899  0.94807997  0.19371987    -0.81700
O335        O  0.89102692  0.86848130  0.11245335    -0.83500
O336        O  0.91732237  0.94548651  0.24509233    -0.79100
O337        O  0.88445052  0.90244424  0.12314929    -0.90800
O338        O  0.96626815  0.92000315  0.13326299    -0.76700
O339        O  0.94130933  0.91859676  0.19441180    -0.86200
O340        O  0.93321857  0.88984334  0.14192682    -0.85900
O341        O  0.90025418  0.90867828  0.21971942    -0.72700
O342        O  0.89383195  0.88247398  0.17224137    -0.84800
Zr343      Zr  0.93884000  0.85359824  0.23822657     2.26400
Zr344      Zr  0.93228179  0.91128483  0.25047948     2.06300
Zr345      Zr  0.91723357  0.85671220  0.15134736     2.10000
Zr346      Zr  0.96432712  0.89283546  0.17349916     1.78800
O347        O  0.89254628  0.82820208  0.14710335    -0.93600
O348        O  0.99060713  0.91673652  0.19422443    -0.41400
O349        O  0.94871550  0.85978887  0.18224870    -0.78000
O350        O  0.95627691  0.88611560  0.22974203    -0.96700
O351        O  0.91544012  0.87865234  0.25977905    -0.90000
O352        O  0.90769789  0.84957314  0.20722853    -0.92900
C353        C  0.95359729  0.93217715  0.11847022     1.00900
C354        C  0.88077600  0.88535496  0.10780383     1.13800
C355        C  0.90746048  0.95538796  0.22258679     1.04600
O356        O  0.96012796  0.93654058  0.25700460    -0.95000
O357        O  0.95415703  0.89884040  0.29572240    -0.90800
O358        O  0.95826776  0.86446111  0.28627956    -0.83900
C359        C  0.96183713  0.88095037  0.30289258     1.11200
O360        O  0.85045137  0.89135407  0.22032823    -0.97000
Zr361      Zr  0.88452565  0.87531143  0.22791946     1.88900
O362        O  0.91431093  0.83280845  0.26982511    -0.73600
O363        O  0.91473479  0.91907605  0.30208420    -0.52900
O364        O  0.86947114  0.89133006  0.27661681    -0.97600
O365        O  0.85842799  0.85418252  0.20027271    -0.54800
O366        O  0.88174451  0.84611514  0.26548196    -0.74200
C367        C  0.89478234  0.83278256  0.27675888     0.98200
O368        O  0.96062167  0.82949876  0.26939341    -0.63000
O369        O  0.93085011  0.84994855  0.09645481    -0.57800
O370        O  0.95201278  0.82514843  0.20539027    -0.94500
O371        O  0.93835440  0.82511037  0.15406458    -0.92900
O372        O  0.98002951  0.87673353  0.12543969    -0.93200
O373        O  0.99730705  0.87552547  0.18513681    -0.92000
C374        C  0.94995966  0.81725006  0.17669584     1.17000
H375        H  0.93582422  0.89193880  0.11881042     0.33000
H376        H  0.96949901  0.88665926  0.24100957     0.43800
H377        H  0.90209361  0.83572965  0.20917014     0.37300
H378        H  0.89007954  0.91856802  0.22736073     0.33800
H379        H  0.98368863  0.93046379  0.19417951     0.25600
H380        H  0.92239587  0.93108119  0.31113601     0.31600
H381        H  0.87424647  0.88265261  0.29523980     0.37500
H382        H  0.97135370  0.86434622  0.12125025     0.31900
H383        H  0.92048548  0.84061129  0.08624690     0.30800
H384        H  0.89257743  0.82442129  0.12355837     0.32500
H385        H  0.86332520  0.83972400  0.20294455     0.31500
H386        H  0.99335959  0.86309848  0.19800844     0.35400
H387        H  0.95423641  0.81565176  0.26664964     0.28200
H388        H  0.89298376  0.95214413  0.13294262     0.32400
H389        H  0.85164470  0.89900371  0.19930433     0.35300
H390        H  0.92933848  0.86314132  0.08424094     0.27900
H391        H  0.97412179  0.82876811  0.25761154     0.40700
H392        H  0.95707324  0.94346878  0.27813584     0.30800
H393        H  0.99220390  0.91325244  0.21777942     0.38400
H394        H  0.86029905  0.85716909  0.17658632     0.30300
H395        H  0.90094732  0.92472783  0.29568362     0.30300
H396        H  0.87441746  0.94196699  0.15241779     0.30600
Zr397      Zr  0.18158709  0.82814141  0.62183707     2.17500
O398        O  0.20781395  0.85325609  0.63899561    -0.51800
O399        O  0.19943011  0.80611577  0.66330737    -0.75000
O400        O  0.16901641  0.85208077  0.66518223    -0.81700
O401        O  0.21216806  0.81663683  0.54238854    -0.83500
O402        O  0.13451279  0.84632569  0.67434724    -0.79100
O403        O  0.21330619  0.83580828  0.58916990    -0.90800
O404        O  0.18199957  0.77568047  0.66591867    -0.76700
O405        O  0.15588298  0.80608381  0.64609284    -0.86200
O406        O  0.18538359  0.79501221  0.59617973    -0.85900
O407        O  0.14820811  0.84393142  0.60910579    -0.72700
O408        O  0.17524459  0.83299306  0.56377815    -0.84800
Zr409      Zr  0.12015624  0.79404507  0.55165684     2.26400
Zr410      Zr  0.12261326  0.82139882  0.63376481     2.06300
Zr411      Zr  0.17856657  0.79952247  0.53860152     2.10000
Zr412      Zr  0.15937397  0.77331755  0.61964378     1.78800
O413        O  0.19043558  0.81156142  0.48507292    -0.93600
O414        O  0.13969286  0.75691700  0.66382032    -0.41400
O415        O  0.15287829  0.77746784  0.56235704    -0.78000
O416        O  0.12602633  0.78794268  0.60892473    -0.96700
O417        O  0.11622292  0.82702669  0.57652126    -0.90000
O418        O  0.14568383  0.81544613  0.52620443    -0.92900
C419        C  0.19611648  0.78804254  0.67594101     1.00900
C420        C  0.22131496  0.82931731  0.56192367     1.13800
C421        C  0.15167888  0.85588084  0.68025886     1.04600
O422        O  0.11479815  0.80703070  0.68778306    -0.95000
O423        O  0.08850366  0.80426371  0.63032424    -0.90800
O424        O  0.08666662  0.79062256  0.57890124    -0.83900
C425        C  0.07891851  0.79445549  0.60732089     1.11200
O426        O  0.16093083  0.88083041  0.55668969    -0.97000
Zr427      Zr  0.14197052  0.84833026  0.55151617     1.88900
O428        O  0.09863931  0.81535239  0.51638776    -0.73600
O429        O  0.09623754  0.84861176  0.63563170    -0.52900
O430        O  0.12025139  0.87740357  0.56853464    -0.97600
O431        O  0.15720651  0.85970497  0.49968824    -0.54800
O432        O  0.11147772  0.84805517  0.51535637    -0.74200
C433        C  0.09804944  0.83429291  0.50689390     0.98200
O434        O  0.10268098  0.76181321  0.53710019    -0.63000
O435        O  0.20227055  0.76994494  0.53955182    -0.57800
O436        O  0.12963010  0.77606663  0.50182439    -0.94500
O437        O  0.16486936  0.77648663  0.49551468    -0.92900
O438        O  0.18767346  0.74943527  0.60681021    -0.93200
O439        O  0.14674388  0.73845975  0.60869393    -0.92000
C440        C  0.14640121  0.77085249  0.48669952     1.17000
H441        H  0.19922282  0.78953933  0.59991071     0.33000
H442        H  0.11602170  0.77820948  0.61758720     0.43800
H443        H  0.14348170  0.81640469  0.50279147     0.37300
H444        H  0.14709048  0.85780782  0.61770300     0.33800
H445        H  0.15016332  0.74902571  0.67665314     0.25600
H446        H  0.10375480  0.86133897  0.62900470     0.31600
H447        H  0.11817121  0.88572135  0.54832399     0.37500
H448        H  0.19013645  0.74165138  0.62743749     0.31900
H449        H  0.20561585  0.76732181  0.51619259     0.30800
H450        H  0.20134088  0.80149812  0.47851910     0.32500
H451        H  0.14573472  0.85896743  0.48347095     0.31500
H452        H  0.13289594  0.74055333  0.59841877     0.35400
H453        H  0.09983950  0.75470259  0.55820414     0.28200
H454        H  0.20953584  0.85120420  0.66295197     0.32400
H455        H  0.16891477  0.87941447  0.57739348     0.35300
H456        H  0.21543795  0.77527310  0.54898364     0.27900
H457        H  0.08880234  0.76593204  0.52859351     0.40700
H458        H  0.11005642  0.81892261  0.70117933     0.30800
H459        H  0.13553768  0.76846794  0.67837920     0.38400
H460        H  0.16687682  0.84843700  0.49331476     0.30300
H461        H  0.08682781  0.84568613  0.61692934     0.30300
H462        H  0.20119148  0.86705471  0.63660471     0.30600
Zr463      Zr  0.32234122  0.64487888  0.91803606     2.17500
O464        O  0.29821781  0.62012722  0.89352375    -0.51800
O465        O  0.30274448  0.66860228  0.88128731    -0.75000
O466        O  0.29119087  0.63804411  0.95249662    -0.81700
O467        O  0.36751258  0.62720871  0.86199662    -0.83500
O468        O  0.29517333  0.65391975  0.00179821    -0.79100
O469        O  0.33415038  0.61945765  0.87631149    -0.90800
O470        O  0.31347661  0.70140334  0.89164580    -0.76700
O471        O  0.32000366  0.67614571  0.94925954    -0.86200
O472        O  0.34629870  0.66873431  0.89332827    -0.85900
O473        O  0.33216737  0.63576977  0.97369057    -0.72700
O474        O  0.35650607  0.62978116  0.92337441    -0.84800
Zr475      Zr  0.38752704  0.67607186  0.98432988     2.26400
Zr476      Zr  0.33027849  0.66755068  0.00431458     2.06300
Zr477      Zr  0.38039274  0.65370228  0.89876154     2.10000
Zr478      Zr  0.34416577  0.69968057  0.92504396     1.78800
O479        O  0.40779950  0.62958079  0.88251058    -0.93600
O480        O  0.32228401  0.72706786  0.94790489    -0.41400
O481        O  0.37843232  0.68529243  0.92904187    -0.78000
O482        O  0.35379017  0.69206475  0.98037978    -0.96700
O483        O  0.36416347  0.65232843  0.00953619    -0.90000
O484        O  0.39045823  0.64495203  0.95367489    -0.92900
C485        C  0.30161255  0.68842084  0.87723551     1.00900
C486        C  0.35082158  0.61640788  0.85904824     1.13800
C487        C  0.28458536  0.64307705  0.98136988     1.04600
O488        O  0.30662342  0.69524476  0.02059323    -0.95000
O489        O  0.34547480  0.68768054  0.04905739    -0.90800
O490        O  0.38003375  0.69102725  0.03770204    -0.83900
C491        C  0.36396067  0.69409553  0.05590079     1.11200
O492        O  0.35162991  0.58698357  0.97370600    -0.97000
Zr493      Zr  0.36667870  0.62144479  0.97835287     1.88900
O494        O  0.40955636  0.65376390  0.01771783    -0.73600
O495        O  0.32394218  0.64690019  0.05345232    -0.52900
O496        O  0.35392975  0.60722998  0.03004578    -0.97600
O497        O  0.38833954  0.59593038  0.95034102    -0.54800
O498        O  0.39731244  0.62092774  0.01365402    -0.74200
C499        C  0.41026181  0.63437161  0.02470542     0.98200
O500        O  0.40796667  0.70723252  0.99473764    -0.63000
O501        O  0.38224231  0.67036983  0.84512696    -0.57800
O502        O  0.41965228  0.68046614  0.95379811    -0.94500
O503        O  0.41461200  0.67037216  0.90090779    -0.92900
O504        O  0.35659344  0.71298468  0.87256941    -0.93200
O505        O  0.36165150  0.73274288  0.93311471    -0.92000
C506        C  0.42582500  0.67807807  0.92404095     1.17000
H507        H  0.34304317  0.67118508  0.87047497     0.33000
H508        H  0.35361947  0.70491320  0.99254099     0.43800
H509        H  0.40454956  0.63968192  0.95428320     0.37300
H510        H  0.32277132  0.62559188  0.98281142     0.33800
H511        H  0.30778703  0.72196324  0.94589927     0.25600
H512        H  0.33775276  0.64559199  0.06414180     0.31600
H513        H  0.36157669  0.61486588  0.04731260     0.37500
H514        H  0.34917977  0.72632599  0.86955533     0.31900
H515        H  0.38711896  0.68460827  0.84973471     0.30800
H516        H  0.41473436  0.62529900  0.90315145     0.32500
H517        H  0.40288852  0.60026197  0.95464849     0.31500
H518        H  0.37299518  0.72966072  0.94889636     0.35400
H519        H  0.39772493  0.71814805  0.00046922     0.28200
H520        H  0.28455568  0.62728500  0.89242135     0.32400
H521        H  0.33718414  0.58940525  0.96597840     0.35300
H522        H  0.39422962  0.66359973  0.83414014     0.27900
H523        H  0.41572100  0.70443625  0.01531749     0.40700
H524        H  0.29790794  0.69787513  0.00094781     0.30800
H525        H  0.32506965  0.72681307  0.97181082     0.38400
H526        H  0.38621979  0.59874549  0.92665723     0.30300
H527        H  0.31589936  0.65617162  0.06811259     0.30300
H528        H  0.29637277  0.60900767  0.91007624     0.30600
Zr529      Zr  0.17968613  0.32993072  0.41000044     2.17500
O530        O  0.20344387  0.35431065  0.38344636    -0.51800
O531        O  0.19824771  0.30712784  0.37095071    -0.75000
O532        O  0.21161035  0.33650040  0.44218730    -0.81700
O533        O  0.13383807  0.34589015  0.35505379    -0.83500
O534        O  0.20966391  0.31787311  0.48948807    -0.79100
O535        O  0.16674057  0.35530179  0.36932519    -0.90800
O536        O  0.18898612  0.27397511  0.38211744    -0.76700
O537        O  0.18326912  0.29842597  0.44046928    -0.86200
O538        O  0.15531529  0.30623558  0.38648582    -0.85900
O539        O  0.17137788  0.33839151  0.46653553    -0.72700
O540        O  0.14560251  0.34475701  0.41747053    -0.84800
Zr541      Zr  0.11683151  0.29782073  0.48022840     2.26400
Zr542      Zr  0.17419664  0.30626225  0.49639888     2.06300
Zr543      Zr  0.12118018  0.32073827  0.39462771     2.10000
Zr544      Zr  0.15887641  0.27498478  0.41714232     1.78800
O545        O  0.09359147  0.34663153  0.39036868    -0.93600
O546        O  0.18073444  0.24776780  0.44069147    -0.41400
O547        O  0.12474088  0.28900735  0.42447579    -0.78000
O548        O  0.15044558  0.28182870  0.47320290    -0.96700
O549        O  0.14056052  0.32158692  0.50422892    -0.90000
O550        O  0.11237049  0.32914032  0.45018602    -0.92900
C551        C  0.19989989  0.28740249  0.36676809     1.00900
C552        C  0.15005204  0.35738373  0.35185581     1.13800
C553        C  0.21943813  0.32957977  0.46923723     1.04600
O554        O  0.19914940  0.28026758  0.51504110    -0.95000
O555        O  0.16092895  0.28390764  0.54045886    -0.90800
O556        O  0.12659093  0.27899838  0.52947187    -0.83900
C557        C  0.14297689  0.27595524  0.54690431     1.11200
O558        O  0.15445332  0.38592866  0.46746072    -0.97000
Zr559      Zr  0.13690691  0.35269866  0.47323744     1.88900
O560        O  0.09394662  0.32115858  0.51019608    -0.73600
O561        O  0.18054271  0.32834334  0.54377783    -0.52900
O562        O  0.14834941  0.36761376  0.52507107    -0.97600
O563        O  0.11527684  0.37863643  0.44593657    -0.54800
O564        O  0.10645255  0.35395736  0.50893751    -0.74200
C565        C  0.09310553  0.34034927  0.51818155     0.98200
O566        O  0.09384910  0.27369041  0.50895687    -0.63000
O567        O  0.11315263  0.30756341  0.34004038    -0.57800
O568        O  0.08867240  0.28514102  0.44606175    -0.94500
O569        O  0.08984660  0.29911003  0.39498080    -0.92900
O570        O  0.14546921  0.26293282  0.36462513    -0.93200
O571        O  0.14216260  0.24132724  0.42258436    -0.92000
C572        C  0.08136970  0.28751293  0.41696687     1.17000
H573        H  0.15796748  0.30412420  0.36335700     0.33000
H574        H  0.15120624  0.26863549  0.48438434     0.43800
H575        H  0.09819394  0.33422372  0.45131102     0.37300
H576        H  0.18105593  0.34843020  0.47522427     0.33800
H577        H  0.19140629  0.24455671  0.42386919     0.25600
H578        H  0.16803942  0.32664514  0.55780082     0.31600
H579        H  0.14290957  0.35815557  0.54222013     0.37500
H580        H  0.13061886  0.26719618  0.36455752     0.31900
H581        H  0.10582990  0.31910437  0.32883142     0.30800
H582        H  0.08133855  0.33903564  0.38186659     0.32500
H583        H  0.10087602  0.37318324  0.44725796     0.31500
H584        H  0.12717296  0.24455441  0.42558456     0.35400
H585        H  0.07969869  0.27983172  0.50772921     0.28200
H586        H  0.21690306  0.34688369  0.38119335     0.32400
H587        H  0.16137324  0.38521124  0.44574252     0.35300
H588        H  0.12675430  0.30650243  0.32864716     0.27900
H589        H  0.09323767  0.26105782  0.49523978     0.40700
H590        H  0.20446381  0.28556748  0.53624845     0.30800
H591        H  0.18857114  0.25468283  0.45849796     0.38400
H592        H  0.11897927  0.37760353  0.42238305     0.30300
H593        H  0.19184067  0.32128640  0.55606889     0.30300
H594        H  0.20608484  0.36536573  0.39973921     0.30600
Zr595      Zr  0.31888622  0.14498305  0.11504784     2.17500
O596        O  0.29532974  0.11696481  0.13070052    -0.51800
O597        O  0.29870059  0.16685339  0.15360287    -0.75000
O598        O  0.33184651  0.12394356  0.16156064    -0.81700
O599        O  0.28916924  0.15156451  0.03381055    -0.83500
O600        O  0.36563180  0.13256952  0.17171832    -0.79100
O601        O  0.28729100  0.13579974  0.08366730    -0.90800
O602        O  0.30941520  0.20000352  0.14612017    -0.76700
O603        O  0.34267711  0.16961043  0.13771241    -0.86200
O604        O  0.31358084  0.17660920  0.08545062    -0.85900
O605        O  0.35344293  0.13101773  0.10558838    -0.72700
O606        O  0.32652430  0.13778243  0.05809021    -0.84800
Zr607      Zr  0.37897696  0.17997102  0.04302875     2.26400
Zr608      Zr  0.37716042  0.15613172  0.12829941     2.06300
Zr609      Zr  0.32172148  0.16981781  0.02898866     2.10000
Zr610      Zr  0.33753931  0.20093593  0.10758422     1.78800
O611        O  0.31379952  0.15281227  0.97718271    -0.93600
O612        O  0.35145381  0.21642647  0.15752600    -0.41400
O613        O  0.34515340  0.19484145  0.05103173    -0.78000
O614        O  0.37212922  0.18824427  0.09942900    -0.96700
O615        O  0.38487905  0.14851574  0.07195581    -0.90000
O616        O  0.35561787  0.15566731  0.01957851    -0.92900
C617        C  0.29775257  0.18644794  0.15967929     1.00900
C618        C  0.27979028  0.14028594  0.05511040     1.13800
C619        C  0.34904056  0.12200356  0.17779184     1.04600
O620        O  0.38338881  0.17403885  0.17988607    -0.95000
O621        O  0.41111977  0.17370073  0.12276869    -0.90800
O622        O  0.41195865  0.18563725  0.07025882    -0.83900
C623        C  0.42023193  0.18292176  0.09857410     1.11200
O624        O  0.34586971  0.09026353  0.05891547    -0.97000
Zr625      Zr  0.36101685  0.12434254  0.04916294     1.88900
O626        O  0.39983096  0.15894886  0.00673790    -0.73600
O627        O  0.40434341  0.13024547  0.13695921    -0.52900
O628        O  0.38638317  0.10002748  0.07176093    -0.97600
O629        O  0.34811077  0.10870203  0.99862812    -0.54800
O630        O  0.39039544  0.12529801  0.01160379    -0.74200
C631        C  0.40177153  0.13975587  0.99956595     0.98200
O632        O  0.39781975  0.21009834  0.02219256    -0.63000
O633        O  0.29483689  0.19598433  0.01996585    -0.57800
O634        O  0.36831904  0.19793729  0.99368908    -0.94500
O635        O  0.33374108  0.19267119  0.98493530    -0.92900
O636        O  0.31160203  0.22522786  0.08663867    -0.93200
O637        O  0.35117087  0.23562996  0.09809632    -0.92000
C638        C  0.35147870  0.20061549  0.97723979     1.17000
H639        H  0.29936158  0.18136400  0.08776557     0.33000
H640        H  0.38160305  0.19876437  0.10709600     0.43800
H641        H  0.35816047  0.15396208  0.99634837     0.37300
H642        H  0.35530570  0.11769816  0.11598749     0.33800
H643        H  0.35021108  0.20545148  0.17443693     0.25600
H644        H  0.39714758  0.11676335  0.13473461     0.31600
H645        H  0.39290711  0.09334384  0.05244451     0.37500
H646        H  0.30686076  0.23312516  0.10608854     0.31900
H647        H  0.28419311  0.19353626  0.03715411     0.30800
H648        H  0.32127784  0.13940870  0.97828702     0.32500
H649        H  0.35560042  0.09531904  0.99686417     0.31500
H650        H  0.35969437  0.23434140  0.07791665     0.35400
H651        H  0.40076981  0.21891277  0.04150042     0.28200
H652        H  0.29285002  0.11850277  0.15457491     0.32400
H653        H  0.33836244  0.09154332  0.08006920     0.35300
H654        H  0.30149273  0.20922270  0.02622165     0.27900
H655        H  0.41159575  0.20484153  0.01491196     0.40700
H656        H  0.39448650  0.16583770  0.19077715     0.30800
H657        H  0.36665209  0.21772564  0.15373334     0.38400
H658        H  0.35403408  0.11721395  0.98065880     0.30300
H659        H  0.41330873  0.13115898  0.11720059     0.30300
H660        H  0.30355990  0.10404386  0.12840911     0.30600
Zr661      Zr  0.59606118  0.56233155  0.37015437     2.17500
O662        O  0.62322789  0.53800854  0.38709292    -0.51800
O663        O  0.57194737  0.54476865  0.40910497    -0.75000
O664        O  0.61634224  0.57444444  0.41819491    -0.81700
O665        O  0.59504301  0.53347261  0.28749440    -0.83500
O666        O  0.60741753  0.60800566  0.42758780    -0.79100
O667        O  0.60317202  0.52945850  0.34151920    -0.90800
O668        O  0.53926572  0.55577895  0.39706295    -0.76700
O669        O  0.56938230  0.58508863  0.38967676    -0.86200
O670        O  0.56672555  0.55757769  0.33463537    -0.85900
O671        O  0.61060415  0.59672560  0.36330696    -0.72700
O672        O  0.60741692  0.57104977  0.31493084    -0.84800
Zr673      Zr  0.56532400  0.62348603  0.29549275     2.26400
Zr674      Zr  0.58363145  0.61922443  0.38413784     2.06300
Zr675      Zr  0.57756384  0.56661091  0.28001917     2.10000
Zr676      Zr  0.54043190  0.58064453  0.35346575     1.78800
O677        O  0.59872293  0.56338683  0.23055716    -0.93600
O678        O  0.51706321  0.59654498  0.39354268    -0.41400
O679        O  0.55077976  0.58937571  0.29897709    -0.78000
O680        O  0.55357064  0.61519983  0.34975520    -0.96700
O681        O  0.59480996  0.62849614  0.32984250    -0.90000
O682        O  0.59134822  0.60079481  0.27438168    -0.92900
C683        C  0.55200586  0.54489545  0.41396009     1.00900
C684        C  0.60221706  0.52280932  0.31169459     1.13800
C685        C  0.61806760  0.59160428  0.43423166     1.04600
O686        O  0.56006233  0.61914923  0.43106247    -0.95000
O687        O  0.56763274  0.65343398  0.37656275    -0.90800
O688        O  0.55964735  0.65653745  0.32234006    -0.83900
C689        C  0.56068176  0.66369140  0.35168637     1.11200
O690        O  0.65527367  0.59248553  0.32171013    -0.97000
Zr691      Zr  0.62066032  0.60576609  0.30872048     1.88900
O692        O  0.58775328  0.64567543  0.26313051    -0.73600
O693        O  0.60321300  0.64846926  0.40592526    -0.52900
O694        O  0.64337876  0.63138242  0.33407207    -0.97600
O695        O  0.63910523  0.59311876  0.26038966    -0.54800
O696        O  0.62116630  0.63558167  0.27196127    -0.74200
C697        C  0.60746310  0.64739318  0.25850974     0.98200
O698        O  0.53252030  0.63923867  0.27801903    -0.63000
O699        O  0.55526582  0.53790416  0.26356610    -0.57800
O700        O  0.55213154  0.61455210  0.24187593    -0.94500
O701        O  0.55510844  0.57964131  0.23554432    -0.92900
O702        O  0.52108250  0.55156727  0.33075141    -0.93200
O703        O  0.50604505  0.59100738  0.33389794    -0.92000
C704        C  0.54890244  0.59770354  0.22606055     1.17000
H705        H  0.56194958  0.54340284  0.33553220     0.33000
H706        H  0.54261137  0.62464407  0.35611829     0.43800
H707        H  0.59450080  0.60388560  0.25170426     0.37300
H708        H  0.62359178  0.59838070  0.37482256     0.33800
H709        H  0.51740953  0.58739207  0.41306739     0.25600
H710        H  0.60061946  0.64827113  0.42990209     0.31600
H711        H  0.64048488  0.63043777  0.35790066     0.37500
H712        H  0.52133782  0.55384754  0.30670925     0.31900
H713        H  0.54169565  0.54424179  0.25770159     0.30800
H714        H  0.59881728  0.54839588  0.22549006     0.32500
H715        H  0.63337643  0.60113909  0.24168712     0.31500
H716        H  0.50784742  0.59333819  0.31002160     0.35400
H717        H  0.52409767  0.64054958  0.29830314     0.28200
H718        H  0.62038203  0.53482347  0.41046919     0.32400
H719        H  0.65281686  0.58157069  0.33838403     0.35300
H720        H  0.56113283  0.53316103  0.24237114     0.27900
H721        H  0.53597003  0.65363923  0.27160910     0.40700
H722        H  0.56732380  0.61089960  0.44812425     0.30800
H723        H  0.52416232  0.60933440  0.40077551     0.38400
H724        H  0.63379367  0.57889086  0.25711499     0.30300
H725        H  0.61808791  0.64461419  0.40349745     0.30300
H726        H  0.63639415  0.54601426  0.38711873     0.30600
Zr727      Zr  0.40829810  0.41744046  0.65774315     2.17500
O728        O  0.38209629  0.43959670  0.63187141    -0.51800
O729        O  0.43202661  0.43764903  0.62167594    -0.75000
O730        O  0.40008214  0.44891953  0.69020865    -0.81700
O731        O  0.39451376  0.37121239  0.60123476    -0.83500
O732        O  0.41628824  0.44603239  0.73965835    -0.79100
O733        O  0.38449063  0.40384531  0.61502825    -0.90800
O734        O  0.46531027  0.42777949  0.63261993    -0.76700
O735        O  0.43837194  0.42126005  0.69179780    -0.86200
O736        O  0.43433996  0.39487218  0.63521366    -0.85900
O737        O  0.39781986  0.40774687  0.71297897    -0.72700
O738        O  0.39497767  0.38271687  0.66225890    -0.84800
Zr739      Zr  0.44020951  0.35473806  0.72679261     2.26400
Zr740      Zr  0.42868856  0.41079380  0.74636245     2.06300
Zr741      Zr  0.42099700  0.36025233  0.63969500     2.10000
Zr742      Zr  0.46419638  0.39879588  0.66968991     1.78800
O743        O  0.39966712  0.33149154  0.62074311    -0.93600
O744        O  0.48601098  0.42504398  0.69545602    -0.41400
O745        O  0.45143964  0.36400170  0.67265089    -0.78000
O746        O  0.45503242  0.38871591  0.72421021    -0.96700
O747        O  0.41446657  0.37674493  0.75027886    -0.90000
O748        O  0.41015672  0.35029913  0.69359852    -0.92900
C749        C  0.45197873  0.43919306  0.61775973     1.00900
C750        C  0.38263202  0.38708431  0.59793902     1.13800
C751        C  0.40555148  0.45620754  0.71842900     1.04600
O752        O  0.45449836  0.43485035  0.76783601    -0.95000
O753        O  0.44862151  0.39532687  0.79207452    -0.90800
O754        O  0.45195041  0.36082857  0.78210710    -0.83900
C755        C  0.45473598  0.37690268  0.79995997     1.11200
O756        O  0.35131274  0.38720764  0.69828762    -0.97000
Zr757      Zr  0.38457379  0.37289565  0.71651245     1.88900
O758        O  0.41763911  0.33143806  0.75661431    -0.73600
O759        O  0.40520292  0.41617109  0.79263091    -0.52900
O760        O  0.36664022  0.38763251  0.76376729    -0.97600
O761        O  0.35939489  0.34822817  0.69470626    -0.54800
O762        O  0.38445747  0.34364391  0.75502496    -0.74200
C763        C  0.39835171  0.33060629  0.76484442     0.98200
O764        O  0.47331496  0.33970617  0.74441617    -0.63000
O765        O  0.44134683  0.35976265  0.58912389    -0.57800
O766        O  0.44831366  0.32319686  0.69760973    -0.94500
O767        O  0.43915309  0.32697294  0.64414695    -0.92900
O768        O  0.48418545  0.38631547  0.62280430    -0.93200
O769        O  0.49811540  0.38473617  0.68505673    -0.92000
C770        C  0.44749220  0.31672183  0.66790080     1.17000
H771        H  0.43731767  0.39817541  0.61255755     0.33000
H772        H  0.46750864  0.38922311  0.73746093     0.43800
H773        H  0.40553093  0.33606381  0.69375177     0.37300
H774        H  0.38705313  0.41695400  0.72088292     0.33800
H775        H  0.47747502  0.43784772  0.69527875     0.25600
H776        H  0.41236790  0.42650129  0.80655600     0.31600
H777        H  0.35325963  0.38002932  0.76502892     0.37500
H778        H  0.47568626  0.38995163  0.60332714     0.31900
H779        H  0.44202032  0.34496338  0.58286943     0.30800
H780        H  0.38634737  0.33296511  0.63284228     0.32500
H781        H  0.35109616  0.34374096  0.71396208     0.31500
H782        H  0.49650503  0.36953027  0.68318130     0.35400
H783        H  0.47014764  0.32525188  0.75088917     0.28200
H784        H  0.38834561  0.45359430  0.63063082     0.32400
H785        H  0.35498456  0.39677880  0.68014742     0.35300
H786        H  0.43218210  0.36617037  0.57235981     0.27900
H787        H  0.48185456  0.33853292  0.72423021     0.40700
H788        H  0.44760247  0.44153600  0.78683381     0.30800
H789        H  0.48669399  0.42102985  0.71891066     0.38400
H790        H  0.36767189  0.33585961  0.68864131     0.30300
H791        H  0.39310065  0.42373509  0.78336393     0.30300
H792        H  0.37063199  0.44080748  0.64808186     0.30600
Zr793      Zr  0.82035069  0.14818389  0.40729614     2.17500
O794        O  0.79538116  0.12849006  0.37468967    -0.51800
O795        O  0.80206160  0.17381910  0.37259902    -0.75000
O796        O  0.78908323  0.13888991  0.43994190    -0.81700
O797        O  0.86707021  0.12912355  0.35415316    -0.83500
O798        O  0.79121157  0.15439481  0.48992241    -0.79100
O799        O  0.83348452  0.12198506  0.36830422    -0.90800
O800        O  0.81743712  0.20517034  0.37842264    -0.76700
O801        O  0.81842040  0.17889966  0.43958226    -0.86200
O802        O  0.84580280  0.17153571  0.38514301    -0.85900
O803        O  0.82808125  0.13738691  0.46291900    -0.72700
O804        O  0.85392143  0.13219632  0.41330105    -0.84800
Zr805      Zr  0.88452901  0.17458332  0.47998986     2.26400
Zr806      Zr  0.82623469  0.16862432  0.49481111     2.06300
Zr807      Zr  0.87933331  0.15564965  0.39170373     2.10000
Zr808      Zr  0.84438958  0.20177890  0.41846173     1.78800
O809        O  0.90710041  0.13322235  0.37160521    -0.93600
O810        O  0.81839574  0.22652164  0.43778290    -0.41400
O811        O  0.87784648  0.18600626  0.42485346    -0.78000
O812        O  0.85173134  0.19227918  0.47384054    -0.96700
O813        O  0.85915766  0.15141063  0.50133475    -0.90000
O814        O  0.88732733  0.14453515  0.44659691    -0.92900
C815        C  0.80365631  0.19329469  0.36599317     1.00900
C816        C  0.85030685  0.11833306  0.35178173     1.13800
C817        C  0.78161365  0.14330046  0.46856426     1.04600
O818        O  0.80129064  0.19618614  0.50610904    -0.95000
O819        O  0.84049208  0.18944573  0.53965012    -0.90800
O820        O  0.87570400  0.19007459  0.53244303    -0.83900
C821        C  0.85903761  0.19476747  0.54832105     1.11200
O822        O  0.84254313  0.08950407  0.45793164    -0.97000
Zr823      Zr  0.86171071  0.12141640  0.46781275     1.88900
O824        O  0.90449401  0.14952819  0.51211589    -0.73600
O825        O  0.81888507  0.14964407  0.54525903    -0.52900
O826        O  0.84914640  0.10520715  0.51812100    -0.97600
O827        O  0.88233319  0.09549137  0.43882801    -0.54800
O828        O  0.89134751  0.11740005  0.50383857    -0.74200
C829        C  0.90437345  0.12984816  0.51708017     0.98200
O830        O  0.90423648  0.20371932  0.50211388    -0.63000
O831        O  0.88050980  0.17611004  0.34132378    -0.57800
O832        O  0.91702780  0.18092338  0.45104970    -0.94500
O833        O  0.91346135  0.17225098  0.39728107    -0.92900
O834        O  0.86132792  0.21773356  0.37119554    -0.93200
O835        O  0.86133262  0.23411244  0.43383290    -0.92000
C836        C  0.92382536  0.17984965  0.42145382     1.17000
H837        H  0.84307972  0.17450718  0.36227940     0.33000
H838        H  0.85173428  0.20503485  0.48616170     0.43800
H839        H  0.90119438  0.13863719  0.44751457     0.37300
H840        H  0.81852243  0.12707823  0.47112914     0.33800
H841        H  0.82278813  0.23019906  0.46032893     0.25600
H842        H  0.81639994  0.13522296  0.53804001     0.31600
H843        H  0.85320448  0.11482386  0.53590695     0.37500
H844        H  0.87642281  0.21737744  0.37635057     0.31900
H845        H  0.89337727  0.18449206  0.34306435     0.30800
H846        H  0.90848495  0.12229013  0.38855827     0.32500
H847        H  0.89702157  0.09977086  0.44194156     0.31500
H848        H  0.87336253  0.22979729  0.44749916     0.35400
H849        H  0.91827955  0.19823443  0.50743248     0.28200
H850        H  0.78232219  0.13671093  0.37495699     0.32400
H851        H  0.83110662  0.09357661  0.44288475     0.35300
H852        H  0.88356251  0.16593818  0.32380639     0.27900
H853        H  0.90639030  0.21336470  0.48347066     0.40700
H854        H  0.79416887  0.19176972  0.52653738     0.30800
H855        H  0.82071546  0.23923408  0.42462573     0.38400
H856        H  0.87952706  0.09808804  0.41525850     0.30300
H857        H  0.83238903  0.14903171  0.55702472     0.30300
H858        H  0.79218661  0.11594418  0.38779568     0.30600
Zr859      Zr  0.67658246  0.33173688  0.11931017     2.17500
O860        O  0.70253152  0.35549984  0.14164661    -0.51800
O861        O  0.69378480  0.30822678  0.15873832    -0.75000
O862        O  0.66315399  0.35346774  0.16421592    -0.81700
O863        O  0.71005060  0.32337772  0.04173192    -0.83500
O864        O  0.62853371  0.34751769  0.17155233    -0.79100
O865        O  0.70885628  0.34098860  0.08998084    -0.90800
O866        O  0.68171273  0.27561464  0.15112032    -0.76700
O867        O  0.65069650  0.30854085  0.13980608    -0.86200
O868        O  0.68148817  0.29991994  0.09058131    -0.85900
O869        O  0.64343928  0.34795066  0.10657306    -0.72700
O870        O  0.67192767  0.33960820  0.06179045    -0.84800
Zr871      Zr  0.61746996  0.30067146  0.04171845     2.26400
Zr872      Zr  0.61758076  0.32424282  0.12735265     2.06300
Zr873      Zr  0.67626768  0.30738952  0.03350481     2.10000
Zr874      Zr  0.65519382  0.27704319  0.11002176     1.78800
O875        O  0.68524087  0.32403516  0.98168361    -0.93600
O876        O  0.63831990  0.26254639  0.15859411    -0.41400
O877        O  0.65016772  0.28406670  0.05304776    -0.78000
O878        O  0.62206558  0.29198795  0.09872920    -0.96700
O879        O  0.61244220  0.33241331  0.07026433    -0.90000
O880        O  0.64342370  0.32333887  0.02036260    -0.92900
C881        C  0.69350305  0.28870278  0.16540287     1.00900
C882        C  0.71805592  0.33551918  0.06319050     1.13800
C883        C  0.64566566  0.35679966  0.17896947     1.04600
O884        O  0.60902620  0.30724954  0.17903481    -0.95000
O885        O  0.58364712  0.30692157  0.12029708    -0.90800
O886        O  0.58484680  0.29263421  0.06946593    -0.83900
C887        C  0.57568693  0.29596166  0.09701724     1.11200
O888        O  0.65822397  0.38662647  0.06020394    -0.97000
Zr889      Zr  0.63865175  0.35499277  0.04929243     1.88900
O890        O  0.59716755  0.32376007  0.00705671    -0.73600
O891        O  0.59147185  0.35137633  0.13426412    -0.52900
O892        O  0.61579124  0.38258851  0.06857078    -0.97600
O893        O  0.65313671  0.37004335  0.99921129    -0.54800
O894        O  0.60896340  0.35663095  0.01182996    -0.74200
C895        C  0.59619458  0.34314862  0.00034299     0.98200
O896        O  0.59682416  0.27444321  0.01348080    -0.63000
O897        O  0.70284799  0.28060119  0.02692924    -0.57800
O898        O  0.63025287  0.28012617  0.99583498    -0.94500
O899        O  0.66548377  0.28290371  0.99146833    -0.92900
O900        O  0.67980715  0.25114324  0.09017097    -0.93200
O901        O  0.63894704  0.24363588  0.09941107    -0.92000
C902        C  0.64780222  0.27554980  0.98237572     1.17000
H903        H  0.69530935  0.29435922  0.09434977     0.33000
H904        H  0.61231689  0.28159953  0.10603741     0.43800
H905        H  0.64178276  0.32507285  0.99693726     0.37300
H906        H  0.64198657  0.36135145  0.11674101     0.33800
H907        H  0.64014931  0.27318173  0.17582748     0.25600
H908        H  0.59770579  0.36373473  0.12371932     0.31600
H909        H  0.61519415  0.39259970  0.05012208     0.37500
H910        H  0.68204712  0.24168541  0.10903094     0.31900
H911        H  0.71327656  0.28312768  0.04438505     0.30800
H912        H  0.68851615  0.33852912  0.98761863     0.32500
H913        H  0.65132863  0.35939804  0.98201194     0.31500
H914        H  0.63516896  0.24409699  0.07584321     0.35400
H915        H  0.59423300  0.26335533  0.02982605     0.28200
H916        H  0.70335847  0.35238683  0.16543984     0.32400
H917        H  0.65728475  0.38877429  0.08422402     0.35300
H918        H  0.69587600  0.26759559  0.03365335     0.27900
H919        H  0.58302018  0.28085503  0.00933302     0.40700
H920        H  0.59781392  0.31591052  0.18862083     0.30800
H921        H  0.62318212  0.26277240  0.15378767     0.38400
H922        H  0.66838938  0.37057653  0.00293900     0.30300
H923        H  0.57981925  0.34749217  0.11958757     0.30300
H924        H  0.69627099  0.36951205  0.14018393     0.30600
Zr925      Zr  0.08914019  0.55764683  0.15789954     2.17500
O926        O  0.11049560  0.53403126  0.12533620    -0.51800
O927        O  0.06385691  0.54056580  0.12122501    -0.75000
O928        O  0.09687466  0.52505603  0.18790910    -0.81700
O929        O  0.10693352  0.60464006  0.10603811    -0.83500
O930        O  0.07945805  0.52611341  0.23649605    -0.79100
O931        O  0.11505324  0.57116637  0.11823117    -0.90800
O932        O  0.03157928  0.55359700  0.13088825    -0.76700
O933        O  0.05794691  0.55484386  0.18975467    -0.83000
O934        O  0.06574514  0.58375218  0.13760921    -0.85900
O935        O  0.09975006  0.56361238  0.21412646    -0.72700
O936        O  0.10551123  0.59059287  0.16665076    -0.84800
Zr937      Zr  0.06175789  0.61915677  0.23458905     2.26400
Zr938      Zr  0.06806170  0.56130857  0.24552550     2.06300
Zr939      Zr  0.08209707  0.61659022  0.14678436     2.10000
Zr940      Zr  0.03490994  0.58115909  0.17007737     1.78800
O941        O  0.10841127  0.64295156  0.13612020    -0.93600
O942        O  0.00742513  0.55928689  0.19257460    -0.41400
O943        O  0.05100463  0.61403450  0.17865709    -0.78000
O944        O  0.04402922  0.58687119  0.22621587    -0.96700
O945        O  0.08521248  0.59363112  0.25479874    -0.90000
O946        O  0.09245959  0.62279455  0.20234683    -0.92900
C947        C  0.04403019  0.54127562  0.11603419     1.00900
C948        C  0.11788720  0.58815240  0.10196403     1.13800
C949        C  0.09075997  0.51677936  0.21515082     1.04600
O950        O  0.03864987  0.53913171  0.25938976    -0.95000
O951        O  0.04974487  0.57438739  0.29366185    -0.90800
O952        O  0.04706865  0.60926579  0.28725571    -0.83900
C953        C  0.04384436  0.59241806  0.30331159     1.11200
O954        O  0.14861811  0.58161798  0.20433342    -0.97000
Zr955      Zr  0.11573425  0.59688059  0.22210240     1.88900
O956        O  0.08640899  0.63883909  0.26760848    -0.73600
O957        O  0.08852611  0.55113830  0.29333592    -0.52900
O958        O  0.13272865  0.57842097  0.26695053    -0.97600
O959        O  0.14147211  0.62114711  0.20061708    -0.54800
O960        O  0.11825794  0.62363999  0.26406276    -0.74200
C961        C  0.10578348  0.63746546  0.27548972     0.98200
O962        O  0.03157463  0.63731398  0.25718821    -0.63000
O963        O  0.06401367  0.62268678  0.09503995    -0.57800
O964        O  0.05555802  0.65215349  0.20788593    -0.94500
O965        O  0.06516427  0.65027463  0.15424164    -0.92900
O966        O  0.01836309  0.59459800  0.12053208    -0.93200
O967        O  0.00442843  0.60242787  0.18237531    -0.92000
C968        C  0.05723622  0.65987018  0.17895007     1.17000
H969        H  0.06283835  0.58188403  0.11450472     0.33000
H970        H  0.03129937  0.58647126  0.23895616     0.43800
H971        H  0.09832413  0.63650873  0.20443879     0.37300
H972        H  0.10981721  0.55347470  0.22149951     0.33800
H973        H  0.99566836  0.56082713  0.17697736     0.25600
H974        H  0.08152274  0.53856537  0.30186286     0.31600
H975        H  0.14346977  0.58813033  0.27511556     0.37500
H976        H  0.00553564  0.58622532  0.11793700     0.31900
H977        H  0.04903126  0.62268524  0.10095483     0.30800
H978        H  0.10123399  0.65367401  0.12284830     0.32500
H979        H  0.13734713  0.63488362  0.20923667     0.31500
H980        H  0.00848163  0.61671142  0.17617247     0.35400
H981        H  0.03649965  0.65137212  0.26297077     0.28200
H982        H  0.10251874  0.52093016  0.12420440     0.32400
H983        H  0.14565589  0.57599197  0.18221535     0.35300
H984        H  0.06708796  0.63730056  0.08944278     0.27900
H985        H  0.02191761  0.63935667  0.23847406     0.40700
H986        H  0.03323775  0.53429450  0.23799060     0.30800
H987        H  0.01241518  0.54493041  0.18915067     0.38400
H988        H  0.13845005  0.62196648  0.17680280     0.30300
H989        H  0.10193778  0.54606333  0.28432229     0.30300
H990        H  0.12279120  0.53076359  0.13914881     0.30600
Zr991      Zr  0.90510188  0.41377503  0.86869746     2.17500
O992        O  0.87532666  0.43584417  0.88199931    -0.51800
O993        O  0.92739028  0.43177877  0.90879823    -0.75000
O994        O  0.88475456  0.40103719  0.91616514    -0.81700
O995        O  0.91635685  0.44597866  0.79158231    -0.83500
O996        O  0.89292480  0.36711501  0.92443543    -0.79100
O997        O  0.89963584  0.44740784  0.84084695    -0.90800
O998        O  0.95969496  0.41772287  0.90422153    -0.76700
O999        O  0.92858822  0.38827873  0.89016257    -0.86200
O1000       O  0.93735593  0.41806039  0.83998554    -0.85900
O1001       O  0.88942960  0.38055004  0.85711674    -0.72700
O1002       O  0.89797491  0.40806578  0.81126032    -0.84800
Zr1003     Zr  0.93759394  0.35367167  0.79377513     2.26400
Zr1004     Zr  0.91348488  0.35511659  0.87836844     2.06300
Zr1005     Zr  0.93058552  0.41174456  0.78304230     2.10000
Zr1006     Zr  0.96050082  0.39256030  0.86103016     1.78800
O1007       O  0.91284956  0.42237870  0.73289051    -0.93600
O1008       O  0.97635456  0.37522221  0.90803797    -0.41400
O1009       O  0.95405611  0.38634067  0.80416754    -0.78000
O1010       O  0.94619712  0.35917634  0.85059357    -0.96700
O1011       O  0.90535145  0.34896572  0.82173278    -0.90000
O1012       O  0.91474631  0.37905528  0.77122672    -0.92900
C1013       C  0.94670739  0.43026947  0.91733573     1.00900
C1014       C  0.90559338  0.45553352  0.81339351     1.13800
C1015       C  0.88306886  0.38376185  0.93196822     1.04600
O1016       O  0.92849193  0.34336782  0.93010234    -0.95000
O1017       O  0.93087576  0.32140068  0.87312820    -0.90800
O1018       O  0.94358843  0.32072021  0.82107440    -0.83900
C1019       C  0.94065399  0.31250370  0.84940367     1.11200
O1020       O  0.85018638  0.39420796  0.80544696    -0.97000
Zr1021     Zr  0.88271202  0.37493303  0.79988271     1.88900
O1022       O  0.91519660  0.33436267  0.75672117    -0.73600
O1023       O  0.88420332  0.33130961  0.88316514    -0.52900
O1024       O  0.85369227  0.35374663  0.81914426    -0.97600
O1025       O  0.86996664  0.38960333  0.74840108    -0.54800
O1026       O  0.88194059  0.34576792  0.76214476    -0.74200
C1027       C  0.89573138  0.33376054  0.74945073     0.98200
O1028       O  0.96637159  0.33377700  0.77029765    -0.63000
O1029       O  0.95961093  0.43557871  0.77501054    -0.57800
O1030       O  0.95768776  0.36519469  0.74681465    -0.94500
O1031       O  0.95335252  0.39975111  0.73891373    -0.92900
O1032       O  0.98542180  0.41908641  0.84466018    -0.93200
O1033       O  0.99496140  0.37891762  0.84795207    -0.92000
C1034       C  0.96127823  0.38210298  0.73118737     1.17000
H1035       H  0.94285958  0.43180612  0.84328666     0.33000
H1036       H  0.95648726  0.34937437  0.85824377     0.43800
H1037       H  0.91307578  0.37719816  0.74787019     0.37300
H1038       H  0.87611101  0.37937691  0.86802935     0.33800
H1039       H  0.98807682  0.38431524  0.91449782     0.25600
H1040       H  0.88583522  0.32160792  0.86454534     0.31600
H1041       H  0.85133198  0.35780950  0.84227487     0.37500
H1042       H  0.99414071  0.42139240  0.86438875     0.31900
H1043       H  0.95603051  0.44338233  0.75481439     0.30800
H1044       H  0.92304972  0.43127115  0.72128286     0.32500
H1045       H  0.87621945  0.38106782  0.73078015     0.31500
H1046       H  0.99224609  0.36525239  0.83784232     0.35400
H1047       H  0.97614741  0.33100989  0.78862479     0.28200
H1048       H  0.87668291  0.43923329  0.90560584     0.32400
H1049       H  0.85450280  0.40886496  0.80758845     0.35300
H1050       H  0.95839940  0.44589379  0.79285862     0.27900
H1051       H  0.96050274  0.32009988  0.76439122     0.40700
H1052       H  0.93529958  0.35578012  0.93942050     0.30800
H1053       H  0.96606396  0.37683373  0.92598285     0.38400
H1054       H  0.87703354  0.40316813  0.74651788     0.30300
H1055       H  0.88742655  0.32287061  0.90286779     0.30300
H1056       H  0.86292775  0.42676088  0.88050712     0.30600
C1057       C  0.95539967  0.44380286  0.94352254    -0.03600
C1058       C  0.94482128  0.46140221  0.95505838    -0.06200
C1059       C  0.95449469  0.47478597  0.97753827    -0.21300
C1060       C  0.97489159  0.47089562  0.98906012     0.24400
C1061       C  0.98509470  0.45285438  0.97823476    -0.18900
C1062       C  0.97549501  0.43959001  0.95591710    -0.08800
C1063       C  0.98480807  0.48610058  0.01196777    -0.19100
C1064       C  0.00455486  0.48466168  0.02377461    -0.23900
C1065       C  0.01450391  0.49986517  0.04665254     0.26500
C1066       C  0.03511204  0.49620660  0.05733391    -0.20700
C1067       C  0.04499994  0.50972061  0.07933282    -0.10300
C1068       C  0.03443865  0.52720347  0.09137153    -0.10900
C1069       C  0.01398378  0.53104174  0.08026409    -0.03800
C1070       C  0.00417140  0.51766219  0.05825618    -0.18900
H1071       H  0.92934852  0.46511863  0.94611744     0.10200
H1072       H  0.94609997  0.48844514  0.98556828     0.10200
H1073       H  0.00055561  0.44872716  0.98641878     0.09900
H1074       H  0.98411526  0.42604064  0.94800536     0.11000
H1075       H  0.97513255  0.49910914  0.01892235     0.11100
H1076       H  0.01427590  0.47171704  0.01667034     0.13000
H1077       H  0.04358127  0.48270441  0.04883555     0.09500
H1078       H  0.06073821  0.50627343  0.08735153     0.11600
H1079       H  0.00538593  0.54447841  0.08869030     0.08200
H1080       H  0.98847603  0.52150776  0.05087035     0.11000
C1081       C  0.86744194  0.38185851  0.95885774    -0.03600
C1082       C  0.86902442  0.36544139  0.98152667    -0.06200
C1083       C  0.85205019  0.35992978  0.00126865    -0.21300
C1084       C  0.83305003  0.37069339  0.99907581     0.24400
C1085       C  0.83191985  0.38813537  0.97821984    -0.18900
C1086       C  0.84899968  0.39370464  0.95843525    -0.08800
C1087       C  0.81435899  0.36166535  0.01570238    -0.19100
C1088       C  0.79654948  0.37208558  0.02204653    -0.23900
C1089       C  0.77744872  0.36175903  0.03515415     0.26500
C1090       C  0.76356735  0.37294364  0.05514436    -0.20700
C1091       C  0.74472476  0.36408972  0.06572342    -0.10300
C1092       C  0.73906832  0.34405953  0.05565716    -0.10900
C1093       C  0.75308139  0.33277920  0.03594545    -0.03800
C1094       C  0.77208881  0.34144424  0.02599486    -0.18900
H1095       H  0.88303007  0.35604481  0.98265254     0.10200
H1096       H  0.85346334  0.34652456  0.01718435     0.10200
H1097       H  0.81750884  0.39669322  0.97541330     0.09900
H1098       H  0.84717893  0.40628112  0.94101087     0.11000
H1099       H  0.81530307  0.34544662  0.02276619     0.11100
H1100       H  0.79587575  0.38869078  0.01796600     0.13000
H1101       H  0.76722350  0.38867186  0.06230414     0.09500
H1102       H  0.73418496  0.37323398  0.08062471     0.11600
H1103       H  0.74916470  0.31731983  0.02772527     0.08200
H1104       H  0.78214468  0.33251743  0.00999889     0.11000
C1105       C  0.88886993  0.31829647  0.72462139    -0.03600
C1106       C  0.86823923  0.31820954  0.71278319    -0.06200
C1107       C  0.86191653  0.30372405  0.68924259    -0.21300
C1108       C  0.87591664  0.28876706  0.67736574     0.24400
C1109       C  0.89667851  0.28911545  0.68862517    -0.18900
C1110       C  0.90304034  0.30365147  0.71198957    -0.08800
C1111       C  0.86852889  0.27328223  0.65290075    -0.19100
C1112       C  0.87687601  0.25414251  0.65053171    -0.23900
C1113       C  0.87065947  0.23829130  0.62585880     0.26500
C1114       C  0.88465418  0.22203054  0.61953808    -0.20700
C1115       C  0.88036487  0.20732271  0.59541124    -0.10300
C1116       C  0.86174032  0.20825138  0.57734799    -0.10900
C1117       C  0.84712315  0.22382257  0.58474739    -0.03800
C1118       C  0.85156429  0.23880294  0.60867604    -0.18900
H1119       H  0.85695042  0.32938546  0.72161697     0.10200
H1120       H  0.84592706  0.30400080  0.68064133     0.10200
H1121       H  0.90816972  0.27838733  0.67913562     0.09900
H1122       H  0.91912197  0.30338728  0.72013368     0.11000
H1123       H  0.85567245  0.27777221  0.63709394     0.11100
H1124       H  0.88945423  0.24986752  0.66706714     0.13000
H1125       H  0.89934025  0.22106221  0.63262192     0.09500
H1126       H  0.89189078  0.19546125  0.59029946     0.11600
H1127       H  0.83269091  0.22496528  0.57102287     0.08200
H1128       H  0.84007730  0.25071395  0.61338736     0.11000
C1129       C  0.70750382  0.28014879  0.19107205    -0.03600
C1130       C  0.71644550  0.29273580  0.21532760    -0.06200
C1131       C  0.72880386  0.28392558  0.24013820    -0.21300
C1132       C  0.73240664  0.26242145  0.24119357     0.24400
C1133       C  0.72384323  0.24996037  0.21641836    -0.18900
C1134       C  0.71148612  0.25869102  0.19186920    -0.08800
C1135       C  0.74613759  0.25362216  0.26716702    -0.19100
C1136       C  0.74559246  0.23351304  0.27656185    -0.23900
C1137       C  0.76042962  0.22368046  0.30016661     0.26500
C1138       C  0.75854357  0.20233705  0.30681549    -0.20700
C1139       C  0.77255479  0.19222466  0.32792041    -0.10300
C1140       C  0.78877749  0.20329651  0.34289400    -0.10900
C1141       C  0.79059833  0.22464740  0.33625159    -0.03800
C1142       C  0.77668549  0.23469352  0.31529889    -0.18900
H1143       H  0.71365104  0.30928557  0.21540014     0.10200
H1144       H  0.73547448  0.29391804  0.25869099     0.10200
H1145       H  0.72695104  0.23350601  0.21534384     0.09900
H1146       H  0.70515795  0.24853468  0.17324067     0.11000
H1147       H  0.75689079  0.26432145  0.27852238     0.11100
H1148       H  0.73378114  0.22346276  0.26617134     0.13000
H1149       H  0.74622900  0.19339141  0.29546951     0.09500
H1150       H  0.77065675  0.17580704  0.33252344     0.11600
H1151       H  0.80285030  0.23380554  0.34732937     0.08200
H1152       H  0.77904385  0.25103681  0.31122960     0.11000
C1153       C  0.57882819  0.35017492  0.97856295    -0.03600
C1154       C  0.57483920  0.37134368  0.97313156    -0.06200
C1155       C  0.55797311  0.37768776  0.95354709    -0.21300
C1156       C  0.54459444  0.36310443  0.93900209     0.24400
C1157       C  0.54867514  0.34191528  0.94427255    -0.18900
C1158       C  0.56549031  0.33558123  0.96382088    -0.08800
C1159       C  0.52759488  0.37054320  0.91670580    -0.19100
C1160       C  0.51086991  0.35902262  0.90809829    -0.23900
C1161       C  0.49507891  0.36509908  0.88271373     0.26500
C1162       C  0.48130465  0.34981939  0.87126967    -0.20700
C1163       C  0.46750100  0.35397493  0.84547341    -0.10300
C1164       C  0.46684528  0.37367518  0.83065113    -0.10900
C1165       C  0.47978512  0.38932014  0.84310580    -0.03800
C1166       C  0.49379129  0.38510787  0.86877703    -0.18900
H1167       H  0.58467409  0.38304151  0.98414638     0.10200
H1168       H  0.55537323  0.39410308  0.94971087     0.10200
H1169       H  0.53932036  0.33006756  0.93275597     0.09900
H1170       H  0.56807950  0.31913061  0.96721648     0.11000
H1171       H  0.52943359  0.38597924  0.90666986     0.11100
H1172       H  0.50895509  0.34383348  0.91912542     0.13000
H1173       H  0.48170943  0.33432690  0.88155794     0.09500
H1174       H  0.45769368  0.34155867  0.83651819     0.11600
H1175       H  0.47975535  0.40458806  0.83202047     0.08200
H1176       H  0.50368281  0.39755924  0.87705662     0.11000
C1177       C  0.64486247  0.37379865  0.20392810    -0.03600
C1178       C  0.66159840  0.38777586  0.20678956    -0.06200
C1179       C  0.65949037  0.40609945  0.22487983    -0.21300
C1180       C  0.64078832  0.41087792  0.24120740     0.24400
C1181       C  0.62452394  0.39624334  0.24045968    -0.18900
C1182       C  0.62652258  0.37796261  0.22192446    -0.08800
C1183       C  0.63800204  0.43227259  0.25463482    -0.19100
C1184       C  0.62433034  0.43768571  0.27841552    -0.23900
C1185       C  0.62036699  0.45981577  0.28758643     0.26500
C1186       C  0.61477616  0.46506393  0.31994925    -0.20700
C1187       C  0.60970916  0.48563213  0.32829342    -0.10300
C1188       C  0.60953179  0.50132027  0.30419772    -0.10900
C1189       C  0.61525162  0.49600705  0.27190110    -0.03800
C1190       C  0.62068201  0.47562520  0.26375202    -0.18900
H1191       H  0.67598569  0.38521594  0.19344658     0.10200
H1192       H  0.67229278  0.41703330  0.22499108     0.10200
H1193       H  0.60978382  0.39944934  0.25238954     0.09900
H1194       H  0.61330777  0.36758368  0.22042903     0.11000
H1195       H  0.64772197  0.44430090  0.24394699     0.11100
H1196       H  0.61586229  0.42571141  0.29157956     0.13000
H1197       H  0.61420752  0.45319383  0.33877236     0.09500
H1198       H  0.60524446  0.48911328  0.35333444     0.11600
H1199       H  0.61527706  0.50762132  0.25266090     0.08200
H1200       H  0.62437993  0.47214726  0.23841737     0.11000
C1201       C  0.54221696  0.53218737  0.44065785    -0.03600
C1202       C  0.52047866  0.53369205  0.44587430    -0.06200
C1203       C  0.51048036  0.52223917  0.47035723    -0.21300
C1204       C  0.52179538  0.50859643  0.49058318     0.24400
C1205       C  0.54358678  0.50722860  0.48581302    -0.18900
C1206       C  0.55370126  0.51886011  0.46117354    -0.08800
C1207       C  0.51160525  0.49584847  0.51703287    -0.19100
C1208       C  0.49066617  0.49377929  0.52115594    -0.23900
C1209       C  0.48062313  0.48069718  0.54719658     0.26500
C1210       C  0.45966626  0.47451155  0.54338571    -0.20700
C1211       C  0.44988605  0.46167824  0.56672711    -0.10300
C1212       C  0.46088055  0.45473177  0.59448022    -0.10900
C1213       C  0.48154911  0.46162561  0.59890233    -0.03800
C1214       C  0.49123579  0.47449848  0.57579403    -0.18900
H1215       H  0.51092731  0.54391311  0.43102126     0.10200
H1216       H  0.49388929  0.52446667  0.47323746     0.10200
H1217       H  0.55284808  0.49703103  0.50115901     0.09900
H1218       H  0.57042071  0.51737010  0.45816141     0.11000
H1219       H  0.52201289  0.48727567  0.53307531     0.11100
H1220       H  0.48010289  0.50113846  0.50397259     0.13000
H1221       H  0.45094555  0.47925603  0.52185563     0.09500
H1222       H  0.43400606  0.45664938  0.56250602     0.11600
H1223       H  0.49040246  0.45688859  0.62030484     0.08200
H1224       H  0.50701726  0.47951666  0.58060995     0.11000
C1225       C  0.55540735  0.28505057  0.10218846    -0.03600
C1226       C  0.54758269  0.27217801  0.07719482    -0.06200
C1227       C  0.52993007  0.25997368  0.08220572    -0.21300
C1228       C  0.51947411  0.26001731  0.11257660     0.24400
C1229       C  0.52657621  0.27361214  0.13713690    -0.18900
C1230       C  0.54444530  0.28590155  0.13212977    -0.08800
C1231       C  0.50092080  0.24643778  0.11865772    -0.19100
C1232       C  0.49771833  0.22864746  0.10193923    -0.23900
C1233       C  0.47848185  0.21574941  0.10377016     0.26500
C1234       C  0.47300744  0.20429615  0.07585862    -0.20700
C1235       C  0.45465702  0.19273443  0.07513833    -0.10300
C1236       C  0.44136860  0.19193472  0.10257822    -0.10900
C1237       C  0.44733321  0.20240200  0.13133455    -0.03800
C1238       C  0.46569113  0.21438151  0.13186784    -0.18900
H1239       H  0.55529248  0.27118694  0.05359656     0.10200
H1240       H  0.52451349  0.25065336  0.06191496     0.10200
H1241       H  0.51858456  0.27434288  0.16054526     0.09900
H1242       H  0.54990335  0.29568762  0.15188849     0.11000
H1243       H  0.48963953  0.25136318  0.13694259     0.11100
H1244       H  0.50929891  0.22364646  0.08420725     0.13000
H1245       H  0.48262235  0.20487774  0.05397896     0.09500
H1246       H  0.45051050  0.18484895  0.05260637     0.11600
H1247       H  0.43731385  0.20217022  0.15274899     0.08200
H1248       H  0.46973457  0.22261927  0.15407133     0.11000
C1249       C  0.39229765  0.31351112  0.78753521    -0.03600
C1250       C  0.40703785  0.29813479  0.79563366    -0.06200
C1251       C  0.40240937  0.28275962  0.81857210    -0.21300
C1252       C  0.38286021  0.28205130  0.83394053     0.24400
C1253       C  0.36781253  0.29710905  0.82551272    -0.18900
C1254       C  0.37249910  0.31267999  0.80246581    -0.08800
C1255       C  0.37958806  0.26601215  0.85976363    -0.19100
C1256       C  0.36081675  0.25901293  0.86984154    -0.23900
C1257       C  0.35828955  0.24285481  0.89588985     0.26500
C1258       C  0.33901349  0.24101893  0.91216753    -0.20700
C1259       C  0.33636533  0.22671262  0.93782655    -0.10300
C1260       C  0.35303571  0.21404450  0.94781792    -0.10900
C1261       C  0.37201907  0.21525181  0.93068677    -0.03800
C1262       C  0.37457191  0.22926988  0.90484354    -0.18900
H1263       H  0.42241863  0.29809546  0.78461353     0.10200
H1264       H  0.41430487  0.27140920  0.82455034     0.10200
H1265       H  0.35270614  0.29735488  0.83733781     0.09900
H1266       H  0.36082456  0.32432764  0.79696610     0.11000
H1267       H  0.39364189  0.25967108  0.87066945     0.11100
H1268       H  0.34673566  0.26554204  0.85923147     0.13000
H1269       H  0.32610713  0.25104639  0.90554712     0.09500
H1270       H  0.32156486  0.22610983  0.95063147     0.11600
H1271       H  0.38502280  0.20537182  0.93744425     0.08200
H1272       H  0.38936392  0.22926231  0.89212104     0.11000
C1273       C  0.94483168  0.18859974  0.41537024    -0.03600
C1274       C  0.94925852  0.20013198  0.38684549    -0.06200
C1275       C  0.96824229  0.21087635  0.38381209    -0.21300
C1276       C  0.98321321  0.20992652  0.40912878     0.24400
C1277       C  0.97902445  0.19755104  0.43675943    -0.18900
C1278       C  0.96005082  0.18721914  0.44001380    -0.08800
C1279       C  0.00306142  0.22191564  0.40917845    -0.19100
C1280       C  0.00769885  0.23816482  0.38954838    -0.23900
C1281       C  0.02636695  0.25129518  0.39607787     0.26500
C1282       C  0.03728552  0.26088209  0.37022153    -0.20700
C1283       C  0.05509475  0.27293934  0.37662291    -0.10300
C1284       C  0.06211065  0.27573650  0.40907022    -0.10900
C1285       C  0.05064891  0.26669129  0.43480618    -0.03800
C1286       C  0.03302024  0.25481659  0.42845632    -0.18900
H1287       H  0.93768982  0.20156842  0.36758957     0.10200
H1288       H  0.97094214  0.22000694  0.36193691     0.10200
H1289       H  0.99023471  0.19641078  0.45659765     0.09900
H1290       H  0.95709632  0.17842112  0.46222203     0.11000
H1291       H  0.01415938  0.21777167  0.42826549     0.11100
H1292       H  0.99763809  0.24234016  0.36917520     0.13000
H1293       H  0.03226412  0.25871843  0.34507379     0.09500
H1294       H  0.06351255  0.27977376  0.35625125     0.11600
H1295       H  0.05523157  0.26881929  0.46016016     0.08200
H1296       H  0.02447666  0.24857961  0.44915798     0.11000
C1297       C  0.24100946  0.33549280  0.47868140    -0.03600
C1298       C  0.25212854  0.32294991  0.50091876    -0.06200
C1299       C  0.27187988  0.32871117  0.51194621    -0.21300
C1300       C  0.28097355  0.34735464  0.50162736     0.24400
C1301       C  0.27007456  0.35989854  0.47900371    -0.18900
C1302       C  0.25029876  0.35393485  0.46747368    -0.08800
C1303       C  0.30191135  0.35275914  0.51489020    -0.19100
C1304       C  0.30881658  0.37230526  0.51900151    -0.23900
C1305       C  0.32871406  0.37697203  0.53644693     0.26500
C1306       C  0.33025932  0.39503467  0.55548292    -0.20700
C1307       C  0.34811186  0.39892939  0.57443844    -0.10300
C1308       C  0.36493696  0.38491760  0.57443404    -0.10900
C1309       C  0.36375690  0.36737994  0.55392576    -0.03800
C1310       C  0.34592408  0.36346620  0.53518291    -0.18900
H1311       H  0.24551075  0.30859837  0.50996359     0.10200
H1312       H  0.27994527  0.31869159  0.52916925     0.10200
H1313       H  0.27682895  0.37417686  0.47001456     0.09900
H1314       H  0.24209317  0.36394921  0.45043135     0.11000
H1315       H  0.31120536  0.34004634  0.52455753     0.11100
H1316       H  0.29875492  0.38521461  0.51244582     0.13000
H1317       H  0.31727373  0.40576808  0.55669397     0.09500
H1318       H  0.34839992  0.41250657  0.58998934     0.11600
H1319       H  0.37644643  0.35629299  0.55294274     0.08200
H1320       H  0.34559628  0.34974129  0.51997109     0.11000
C1321       C  0.28262502  0.19491596  0.18384129    -0.03600
C1322       C  0.27732649  0.18437972  0.21284782    -0.06200
C1323       C  0.26621643  0.19466398  0.23781847    -0.21300
C1324       C  0.26022583  0.21559792  0.23424024     0.24400
C1325       C  0.26432100  0.22551108  0.20416269    -0.18900
C1326       C  0.27541250  0.21535055  0.17950714    -0.08800
C1327       C  0.24973422  0.22653479  0.26212849    -0.19100
C1328       C  0.24818962  0.24743000  0.26465196    -0.23900
C1329       C  0.23733214  0.25828872  0.29212138     0.26500
C1330       C  0.22888074  0.27817569  0.28674835    -0.20700
C1331       C  0.21765770  0.28840287  0.31155369    -0.10300
C1332       C  0.21475078  0.27891184  0.34226128    -0.10900
C1333       C  0.22412154  0.25951459  0.34810977    -0.03800
C1334       C  0.23537363  0.24937860  0.32348185    -0.18900
H1335       H  0.28265767  0.16865113  0.21690353     0.10200
H1336       H  0.26291766  0.18645796  0.26045831     0.10200
H1337       H  0.25919154  0.24117551  0.19936069     0.09900
H1338       H  0.27886816  0.22378470  0.15712330     0.11000
H1339       H  0.24319770  0.21687212  0.28137103     0.11100
H1340       H  0.25458897  0.25724969  0.24555372     0.13000
H1341       H  0.23037464  0.28552438  0.26291967     0.09500
H1342       H  0.21044145  0.30322065  0.30623351     0.11600
H1343       H  0.22233097  0.25192772  0.37170154     0.08200
H1344       H  0.24237639  0.23453248  0.32911401     0.11000
C1345       C  0.97600066  0.38087452  0.70302676    -0.03600
C1346       C  0.98233383  0.36140276  0.69114446    -0.06200
C1347       C  0.99742241  0.35978421  0.66656856    -0.21300
C1348       C  0.00653312  0.37763308  0.65286494     0.24400
C1349       C  0.00011440  0.39712682  0.66445222    -0.18900
C1350       C  0.98488637  0.39876699  0.68909545    -0.08800
C1351       C  0.02346984  0.37623334  0.62782741    -0.19100
C1352       C  0.02530589  0.35999425  0.60721055    -0.23900
C1353       C  0.04258367  0.35678959  0.58318458     0.26500
C1354       C  0.04060739  0.34047006  0.56067174    -0.20700
C1355       C  0.05682915  0.33552003  0.53919040    -0.10300
C1356       C  0.07549959  0.34686280  0.53943927    -0.10900
C1357       C  0.07739588  0.36360859  0.56123597    -0.03800
C1358       C  0.06117924  0.36844329  0.58312860    -0.18900
H1359       H  0.97592060  0.34725936  0.70129677     0.10200
H1360       H  0.00235819  0.34444616  0.65923442     0.10200
H1361       H  0.00700235  0.41112032  0.65454472     0.09900
H1362       H  0.98048944  0.41399985  0.69780975     0.11000
H1363       H  0.03428336  0.38908264  0.62617607     0.11100
H1364       H  0.01325487  0.34820618  0.60759381     0.13000
H1365       H  0.02653657  0.33120357  0.56006374     0.09500
H1366       H  0.05481356  0.32262664  0.52251501     0.11600
H1367       H  0.09169800  0.37249589  0.56215756     0.08200
H1368       H  0.06360149  0.38090017  0.60037462     0.11000
C1369       C  0.09734434  0.49532951  0.22390145    -0.03600
C1370       C  0.08474701  0.48361582  0.24521886    -0.06200
C1371       C  0.09138557  0.46439933  0.25701482    -0.21300
C1372       C  0.11099915  0.45638898  0.24847898     0.24400
C1373       C  0.12358943  0.46778038  0.22654029    -0.18900
C1374       C  0.11672240  0.48704603  0.21414909    -0.08800
C1375       C  0.11709830  0.43594309  0.26274917    -0.19100
C1376       C  0.13686716  0.42967115  0.26876243    -0.23900
C1377       C  0.14152032  0.41002829  0.28706382     0.26500
C1378       C  0.15955983  0.40848424  0.30663337    -0.20700
C1379       C  0.16300373  0.39103723  0.32674535    -0.10300
C1380       C  0.14851065  0.37467319  0.32748956    -0.10900
C1381       C  0.13120462  0.37573476  0.30623936    -0.03800
C1382       C  0.12781768  0.39304408  0.28625003    -0.18900
H1383       H  0.06972360  0.48946028  0.25318487     0.10200
H1384       H  0.08126739  0.45593684  0.27359833     0.10200
H1385       H  0.13862393  0.46184345  0.21890480     0.09900
H1386       H  0.12682560  0.49575639  0.19789822     0.11000
H1387       H  0.10434688  0.42640992  0.27162856     0.11100
H1388       H  0.14973796  0.43995793  0.26294498     0.13000
H1389       H  0.17058046  0.42117210  0.30738998     0.09500
H1390       H  0.17656881  0.39073704  0.34258226     0.11600
H1391       H  0.11986773  0.36332603  0.30553644     0.08200
H1392       H  0.11424823  0.39311812  0.27045992     0.11000
C1393       C  0.26384699  0.63533564  0.99303793    -0.03600
C1394       C  0.25620875  0.64158539  0.02394144    -0.06200
C1395       C  0.23806152  0.63293333  0.03712418    -0.21300
C1396       C  0.22667914  0.61807696  0.01968338     0.24400
C1397       C  0.23368324  0.61226284  0.98823176    -0.18900
C1398       C  0.25215926  0.62073473  0.97510880    -0.08800
C1399       C  0.20831591  0.60834250  0.03605487    -0.19100
C1400       C  0.19038526  0.60372870  0.02051499    -0.23900
C1401       C  0.17133940  0.59767649  0.03918673     0.26500
C1402       C  0.15273929  0.60861036  0.03384494    -0.20700
C1403       C  0.13517715  0.60487833  0.05341571    -0.10300
C1404       C  0.13556382  0.58966832  0.07826716    -0.10900
C1405       C  0.15384666  0.57780164  0.08230019    -0.03800
C1406       C  0.17166142  0.58194242  0.06319320    -0.18900
H1407       H  0.26455365  0.65286073  0.03852955     0.10200
H1408       H  0.23295659  0.63777912  0.06129144     0.10200
H1409       H  0.22532877  0.60065266  0.97434441     0.09900
H1410       H  0.25756833  0.61544717  0.95136554     0.11000
H1411       H  0.20878302  0.60695044  0.06266265     0.11100
H1412       H  0.18883391  0.60724357  0.99452617     0.13000
H1413       H  0.15209566  0.62076812  0.01548468     0.09500
H1414       H  0.12138443  0.61429967  0.04959627     0.11600
H1415       H  0.15471594  0.56605031  0.10128184     0.08200
H1416       H  0.18578870  0.57311759  0.06750432     0.11000
C1417       C  0.42709605  0.62704642  0.04701186    -0.03600
C1418       C  0.42626919  0.60715788  0.06113441    -0.06200
C1419       C  0.44192397  0.60040230  0.08259481    -0.21300
C1420       C  0.45895724  0.61317174  0.09007690     0.24400
C1421       C  0.45980120  0.63311510  0.07603071    -0.18900
C1422       C  0.44404704  0.63995232  0.05478455    -0.08800
C1423       C  0.47476190  0.60565041  0.11414757    -0.19100
C1424       C  0.49449582  0.61278913  0.11543205    -0.23900
C1425       C  0.50954632  0.60712806  0.14184331     0.26500
C1426       C  0.52528722  0.62133909  0.14967846    -0.20700
C1427       C  0.53855000  0.61780541  0.17630735    -0.10300
C1428       C  0.53674207  0.59969842  0.19530930    -0.10900
C1429       C  0.52187876  0.58479131  0.18633798    -0.03800
C1430       C  0.50831113  0.58849440  0.15990198    -0.18900
H1431       H  0.41336376  0.59686905  0.05596296     0.10200
H1432       H  0.44072904  0.58509870  0.09340551     0.10200
H1433       H  0.47225938  0.64373054  0.08200085     0.09900
H1434       H  0.44513624  0.65540723  0.04451797     0.11000
H1435       H  0.46966675  0.59406409  0.13173056     0.11100
H1436       H  0.49954576  0.62431605  0.09770309     0.13000
H1437       H  0.52678996  0.63566796  0.13597211     0.09500
H1438       H  0.54998226  0.62949624  0.18252784     0.11600
H1439       H  0.52015574  0.57071642  0.20061016     0.08200
H1440       H  0.49682062  0.57684780  0.15395677     0.11000
C1441       C  0.39923414  0.47765973  0.72815745    -0.03600
C1442       C  0.41138156  0.48834416  0.75135199    -0.06200
C1443       C  0.40533782  0.50778854  0.76299491    -0.21300
C1444       C  0.38667068  0.51705134  0.75261219     0.24400
C1445       C  0.37446221  0.50667926  0.72902584    -0.18900
C1446       C  0.38083385  0.48723304  0.71660352    -0.08800
C1447       C  0.38125171  0.53781587  0.76639318    -0.19100
C1448       C  0.36189349  0.54365204  0.77591257    -0.23900
C1449       C  0.35787952  0.56324422  0.79480634     0.26500
C1450       C  0.34104215  0.56433542  0.81700454    -0.20700
C1451       C  0.33803415  0.58187893  0.83701546    -0.10300
C1452       C  0.35177298  0.59882837  0.83515306    -0.10900
C1453       C  0.36794181  0.59809423  0.81170412    -0.03800
C1454       C  0.37089678  0.58067528  0.79178148    -0.18900
H1455       H  0.42569365  0.48160517  0.76069298     0.10200
H1456       H  0.41515181  0.51548074  0.78084787     0.10200
H1457       H  0.36018383  0.51365519  0.72003387     0.09900
H1458       H  0.37111976  0.47945183  0.69873731     0.11000
H1459       H  0.39435951  0.54764721  0.77271304     0.11100
H1460       H  0.34906251  0.53288199  0.77265190     0.13000
H1461       H  0.33060734  0.55126636  0.81971831     0.09500
H1462       H  0.32544727  0.58183341  0.85476203     0.11600
H1463       H  0.37867914  0.61092829  0.80909113     0.08200
H1464       H  0.38354479  0.58091045  0.77418837     0.11000
C1465       C  0.11418808  0.65294163  0.29920008    -0.03600
C1466       C  0.13423017  0.65075529  0.31293944    -0.06200
C1467       C  0.14174854  0.66519933  0.33579180    -0.21300
C1468       C  0.12957284  0.68231966  0.34532714     0.24400
C1469       C  0.10954502  0.68450633  0.33131924    -0.18900
C1470       C  0.10205373  0.67010218  0.30858038    -0.08800
C1471       C  0.13775861  0.69682106  0.37109094    -0.19100
C1472       C  0.12929064  0.71560358  0.37725815    -0.23900
C1473       C  0.13513372  0.72958182  0.40496880     0.26500
C1474       C  0.12022223  0.74414622  0.41511157    -0.20700
C1475       C  0.12427365  0.75767183  0.44095731    -0.10300
C1476       C  0.14355069  0.75734028  0.45740487    -0.10900
C1477       C  0.15888189  0.74317176  0.44683309    -0.03800
C1478       C  0.15467015  0.72927714  0.42096210    -0.18900
H1479       H  0.14403635  0.63772619  0.30637608     0.10200
H1480       H  0.15712842  0.66290924  0.34621651     0.10200
H1481       H  0.09916528  0.69692478  0.33830243     0.09900
H1482       H  0.08656370  0.67236706  0.29855774     0.11000
H1483       H  0.15080332  0.69152678  0.38589934     0.11100
H1484       H  0.11648841  0.72099248  0.36212881     0.13000
H1485       H  0.10510011  0.74487355  0.40327025     0.09500
H1486       H  0.11211504  0.76840495  0.44822455     0.11600
H1487       H  0.17386284  0.74247654  0.45907664     0.08200
H1488       H  0.16671879  0.71852667  0.41346253     0.11000
C1489       C  0.28633236  0.69763891  0.85388647    -0.03600
C1490       C  0.27968999  0.68706988  0.82568084    -0.06200
C1491       C  0.26784208  0.69739186  0.80160817    -0.21300
C1492       C  0.26250697  0.71845491  0.80517057     0.24400
C1493       C  0.26836009  0.72868231  0.83411188    -0.18900
C1494       C  0.28011474  0.71842652  0.85805077    -0.08800
C1495       C  0.24995279  0.72902299  0.77920096    -0.19100
C1496       C  0.24978732  0.74978917  0.77418703    -0.23900
C1497       C  0.23577944  0.76014451  0.74984648     0.26500
C1498       C  0.24118681  0.77947245  0.73609267    -0.20700
C1499       C  0.22816229  0.78919444  0.71279982    -0.10300
C1500       C  0.20935567  0.77982634  0.70318221    -0.10900
C1501       C  0.20362300  0.76100084  0.71836775    -0.03800
C1502       C  0.21657453  0.75134307  0.74121713    -0.18900
H1503       H  0.28430708  0.67113120  0.82164654     0.10200
H1504       H  0.26321877  0.68902587  0.77977276     0.10200
H1505       H  0.26382269  0.74458964  0.83849414     0.09900
H1506       H  0.28468819  0.72696564  0.87974937     0.11000
H1507       H  0.24084229  0.71914485  0.76315746     0.11100
H1508       H  0.26046848  0.75954498  0.78783710     0.13000
H1509       H  0.25572865  0.78683344  0.74285118     0.09500
H1510       H  0.23303458  0.80368681  0.70179797     0.11600
H1511       H  0.18909970  0.75337575  0.71227668     0.08200
H1512       H  0.21131505  0.73702292  0.75228916     0.11000
C1513       C  0.96242328  0.79828561  0.16991452    -0.03600
C1514       C  0.96082746  0.78735796  0.14016894    -0.06200
C1515       C  0.97312956  0.76964565  0.13465230    -0.21300
C1516       C  0.98742666  0.76274542  0.15850767     0.24400
C1517       C  0.98858256  0.77346848  0.18844668    -0.18900
C1518       C  0.97641347  0.79098107  0.19392873    -0.08800
C1519       C  0.00018254  0.74376479  0.15272261    -0.19100
C1520       C  0.01840748  0.74040366  0.16841798    -0.23900
C1521       C  0.02932937  0.72017186  0.16904412     0.26500
C1522       C  0.03039309  0.70694915  0.14168985    -0.20700
C1523       C  0.04037467  0.68762105  0.14425110    -0.10300
C1524       C  0.04898514  0.68112439  0.17435197    -0.10900
C1525       C  0.04829740  0.69467192  0.20128535    -0.03800
C1526       C  0.03883001  0.71404920  0.19850154    -0.18900
H1527       H  0.95010086  0.79245120  0.12125264     0.10200
H1528       H  0.97161144  0.76141795  0.11163170     0.10200
H1529       H  0.99852866  0.76819245  0.20822255     0.09900
H1530       H  0.97801861  0.79874781  0.21731331     0.11000
H1531       H  0.99397394  0.73199100  0.13643827     0.11100
H1532       H  0.02473323  0.75231471  0.18428770     0.13000
H1533       H  0.02353610  0.71151259  0.11847782     0.09500
H1534       H  0.04068958  0.67747347  0.12311728     0.11600
H1535       H  0.05490102  0.69017493  0.22473774     0.08200
H1536       H  0.03831833  0.72404688  0.21983154     0.11000
C1537       C  0.89910602  0.97615377  0.23153943    -0.03600
C1538       C  0.89254688  0.99046807  0.20757179    -0.06200
C1539       C  0.88435573  0.00979550  0.21682050    -0.21300
C1540       C  0.88210887  0.01502557  0.25014655     0.24400
C1541       C  0.88873191  0.00071051  0.27405108    -0.18900
C1542       C  0.89714442  0.98160228  0.26486807    -0.08800
C1543       C  0.87419411  0.03594942  0.25944423    -0.19100
C1544       C  0.86438536  0.03973270  0.28816876    -0.23900
C1545       C  0.85874734  0.06083108  0.30008866     0.26500
C1546       C  0.84315789  0.06285033  0.32414668    -0.20700
C1547       C  0.83931966  0.08196095  0.33923704    -0.10300
C1548       C  0.85133310  0.09942728  0.33111055    -0.10900
C1549       C  0.86644114  0.09760007  0.30619126    -0.03800
C1550       C  0.87004835  0.07856030  0.29072275    -0.18900
H1551       H  0.89390453  0.98680595  0.18171965     0.10200
H1552       H  0.87965157  0.02065960  0.19789780     0.10200
H1553       H  0.88791870  0.00438475  0.29993301     0.09900
H1554       H  0.90198481  0.97099266  0.28406724     0.11000
H1555       H  0.87644741  0.04849301  0.24200750     0.11100
H1556       H  0.86035909  0.02678629  0.30401711     0.13000
H1557       H  0.83435438  0.04942509  0.33206000     0.09500
H1558       H  0.82779805  0.08274728  0.35866318     0.11600
H1559       H  0.87606479  0.11073233  0.29954132     0.08200
H1560       H  0.88249753  0.07757487  0.27284701     0.11000
C1561       C  0.97662293  0.87886411  0.33087568    -0.03600
C1562       C  0.98330555  0.89606486  0.34921162    -0.06200
C1563       C  0.99860940  0.89373821  0.37366281    -0.21300
C1564       C  0.00743868  0.87421014  0.38037843     0.24400
C1565       C  0.00063473  0.85707931  0.36204368    -0.18900
C1566       C  0.98538275  0.85935259  0.33795886    -0.08800
C1567       C  0.02447800  0.87218267  0.40516524    -0.19100
C1568       C  0.02890544  0.85405867  0.42023698    -0.23900
C1569       C  0.04656387  0.85051580  0.44332317     0.26500
C1570       C  0.06431867  0.86333628  0.44472800    -0.20700
C1571       C  0.08103014  0.85833967  0.46565207    -0.10300
C1572       C  0.08039950  0.84034651  0.48520418    -0.10900
C1573       C  0.06257493  0.82771346  0.48377345    -0.03800
C1574       C  0.04595984  0.83272438  0.46312529    -0.18900
H1575       H  0.97703822  0.91134569  0.34425790     0.10200
H1576       H  0.00370041  0.90724820  0.38716943     0.10200
H1577       H  0.00749701  0.84189994  0.36528174     0.09900
H1578       H  0.98089179  0.84572358  0.32426127     0.11000
H1579       H  0.03327084  0.88597832  0.41133369     0.11100
H1580       H  0.01872384  0.84090909  0.41614180     0.13000
H1581       H  0.06562857  0.87689300  0.42921838     0.09500
H1582       H  0.09460516  0.86829642  0.46601048     0.11600
H1583       H  0.06141452  0.81383890  0.49867592     0.08200
H1584       H  0.03257460  0.82250398  0.46247506     0.11000
C1585       C  0.04658566  0.18116510  0.85944453    -0.03600
C1586       C  0.04325273  0.18833742  0.89166624    -0.06200
C1587       C  0.03074915  0.20593039  0.89740265    -0.21300
C1588       C  0.02121293  0.21649612  0.87111057     0.24400
C1589       C  0.02583062  0.21012474  0.83892353    -0.18900
C1590       C  0.03820282  0.19270915  0.83321770    -0.08800
C1591       C  0.00649369  0.23406364  0.87726412    -0.19100
C1592       C  0.99029433  0.23790477  0.85686647    -0.23900
C1593       C  0.97600641  0.25616970  0.85815465     0.26500
C1594       C  0.96395692  0.26036131  0.83010467    -0.20700
C1595       C  0.95151367  0.27806732  0.82821204    -0.10300
C1596       C  0.95042261  0.29195212  0.85459665    -0.10900
C1597       C  0.96146994  0.28730434  0.88354554    -0.03800
C1598       C  0.97430154  0.26961036  0.88528295    -0.18900
H1599       H  0.04948608  0.17984905  0.91244056     0.10200
H1600       H  0.02782865  0.21077692  0.92243435     0.10200
H1601       H  0.01971824  0.21845590  0.81792261     0.09900
H1602       H  0.04071691  0.18794769  0.80803430     0.11000
H1603       H  0.00909660  0.24369240  0.89864905     0.11100
H1604       H  0.98773712  0.22731630  0.83658458     0.13000
H1605       H  0.96477866  0.25028024  0.80890408     0.09500
H1606       H  0.94322584  0.28128879  0.80557217     0.11600
H1607       H  0.96107647  0.29791414  0.90410303     0.08200
H1608       H  0.98302712  0.26677299  0.90756147     0.11000
C1609       C  0.92009283  0.12093747  0.53987386    -0.03600
C1610       C  0.91972937  0.09976076  0.54840449    -0.06200
C1611       C  0.93394370  0.09170210  0.57125899    -0.21300
C1612       C  0.94897186  0.10454128  0.58571458     0.24400
C1613       C  0.94933420  0.12568524  0.57705321    -0.18900
C1614       C  0.93518575  0.13371734  0.55432505    -0.08800
C1615       C  0.96311711  0.09607548  0.61146547    -0.19100
C1616       C  0.98175828  0.10473361  0.61777068    -0.23900
C1617       C  0.99442463  0.10039522  0.64740322     0.26500
C1618       C  0.00636514  0.11669720  0.65994421    -0.20700
C1619       C  0.01840459  0.11398733  0.68803399    -0.10300
C1620       C  0.01917157  0.09471288  0.70405796    -0.10900
C1621       C  0.00755171  0.07811671  0.69121319    -0.03800
C1622       C  0.99506709  0.08098089  0.66320374    -0.18900
H1623       H  0.90823913  0.08945518  0.53786506     0.10200
H1624       H  0.93312897  0.07544594  0.57780177     0.10200
H1625       H  0.96003198  0.13635491  0.58859339     0.09900
H1626       H  0.93584733  0.15009567  0.54860223     0.11000
H1627       H  0.95756224  0.08329390  0.62646705     0.11100
H1628       H  0.98728764  0.11717096  0.60206018     0.13000
H1629       H  0.00614401  0.13177439  0.64818075     0.09500
H1630       H  0.02731579  0.12703662  0.69703140     0.11600
H1631       H  0.00792008  0.06306967  0.70302435     0.08200
H1632       H  0.98625070  0.06801837  0.65375164     0.11000
C1633       C  0.15063194  0.87348753  0.70406227    -0.03600
C1634       C  0.16580634  0.88923683  0.70407026    -0.06200
C1635       C  0.16262088  0.90762838  0.72188486    -0.21300
C1636       C  0.14418773  0.91077944  0.73998284     0.24400
C1637       C  0.12981031  0.89435414  0.74202074    -0.18900
C1638       C  0.13294819  0.87605198  0.72422456    -0.08800
C1639       C  0.13999306  0.93146558  0.75543693    -0.19100
C1640       C  0.12043497  0.93892489  0.75942472    -0.23900
C1641       C  0.11491105  0.96010769  0.77149800     0.26500
C1642       C  0.09549188  0.96826564  0.76218866    -0.20700
C1643       C  0.08880784  0.98756123  0.77348132    -0.10300
C1644       C  0.10112996  0.99926800  0.79511887    -0.10900
C1645       C  0.12066230  0.99121709  0.80468391    -0.03800
C1646       C  0.12758789  0.97185749  0.79276977    -0.18900
H1647       H  0.17964348  0.88783391  0.68896935     0.10200
H1648       H  0.17415964  0.91982409  0.72026397     0.10200
H1649       H  0.11587304  0.89570101  0.75686877     0.09900
H1650       H  0.12108576  0.86414790  0.72541399     0.11000
H1651       H  0.15319758  0.94139990  0.76082074     0.11100
H1652       H  0.10746930  0.92953771  0.75100901     0.13000
H1653       H  0.08534888  0.95963394  0.74594663     0.09500
H1654       H  0.07368959  0.99319606  0.76555906     0.11600
H1655       H  0.13060766  0.99993942  0.82107975     0.08200
H1656       H  0.14255653  0.96595390  0.80079249     0.11000
C1657       C  0.04307256  0.02834190  0.94626142    -0.03600
C1658       C  0.04958462  0.00762766  0.94849190    -0.06200
C1659       C  0.03962884  0.99395224  0.97027598    -0.21300
C1660       C  0.02296489  0.00066972  0.99016010     0.24400
C1661       C  0.01732143  0.02170515  0.98928055    -0.18900
C1662       C  0.02719754  0.03531309  0.96753181    -0.08800
C1663       C  0.01230014  0.98547414  0.01210310    -0.19100
C1664       C  0.99265235  0.98784554  0.02380875    -0.23900
C1665       C  0.98257780  0.97292277  0.04703313     0.26500
C1666       C  0.99448877  0.95959172  0.06689283    -0.20700
C1667       C  0.98489029  0.94642057  0.08944705    -0.10300
C1668       C  0.96304273  0.94621752  0.09337607    -0.10900
C1669       C  0.95100614  0.95953360  0.07357104    -0.03800
C1670       C  0.96070708  0.97278187  0.05070912    -0.18900
H1671       H  0.06170229  0.00179295  0.93242831     0.10200
H1672       H  0.04456845  0.97790020  0.97091151     0.10200
H1673       H  0.00525750  0.02774013  0.00521344     0.09900
H1674       H  0.02206963  0.05131299  0.96686102     0.11000
H1675       H  0.02084212  0.97137279  0.01759275     0.11100
H1676       H  0.98336411  0.00097647  0.01573608     0.13000
H1677       H  0.01133881  0.95959667  0.06595057     0.09500
H1678       H  0.99483015  0.93657522  0.10430070     0.11600
H1679       H  0.93417535  0.95980844  0.07585336     0.08200
H1680       H  0.95110696  0.98301318  0.03593872     0.11000
C1681       C  0.14073224  0.26160919  0.57525824    -0.03600
C1682       C  0.15782035  0.25034119  0.58755504    -0.06200
C1683       C  0.15486894  0.23498959  0.61157265    -0.21300
C1684       C  0.13482785  0.23056717  0.62375188     0.24400
C1685       C  0.11793269  0.24267052  0.61266689    -0.18900
C1686       C  0.12084431  0.25783057  0.58857389    -0.08800
C1687       C  0.13211156  0.21332045  0.64787738    -0.19100
C1688       C  0.11383640  0.20330584  0.65218024    -0.23900
C1689       C  0.11031281  0.18607977  0.67596520     0.26500
C1690       C  0.08965663  0.18133989  0.68444127    -0.20700
C1691       C  0.08522280  0.16562318  0.70691001    -0.10300
C1692       C  0.10135488  0.15404137  0.72154484    -0.10900
C1693       C  0.12207630  0.15819316  0.71221897    -0.03800
C1694       C  0.12653867  0.17408589  0.68968333    -0.18900
H1695       H  0.17332450  0.25284342  0.57776012     0.10200
H1696       H  0.16821021  0.22612603  0.61998690     0.10200
H1697       H  0.10238713  0.24057399  0.62241256     0.09900
H1698       H  0.10738716  0.26648608  0.58006770     0.11000
H1699       H  0.14574592  0.20852223  0.66171233     0.11100
H1700       H  0.10040000  0.20801086  0.63778836     0.13000
H1701       H  0.07681461  0.19007081  0.67397287     0.09500
H1702       H  0.06904277  0.16271232  0.71302515     0.11600
H1703       H  0.13485753  0.14939424  0.72268805     0.08200
H1704       H  0.14263630  0.17675137  0.68301576     0.11000
C1705       C  0.13394384  0.08786441  0.95259733    -0.03600
C1706       C  0.15014614  0.07312306  0.95215174    -0.06200
C1707       C  0.16756554  0.07534354  0.97267314    -0.21300
C1708       C  0.16919608  0.09234674  0.99395407     0.24400
C1709       C  0.15232479  0.10627485  0.99604723    -0.18900
C1710       C  0.13498179  0.10412259  0.97547954    -0.08800
C1711       C  0.18919976  0.09608109  0.01167997    -0.19100
C1712       C  0.19652701  0.11539874  0.01611654    -0.23900
C1713       C  0.21822337  0.12012007  0.02623988     0.26500
C1714       C  0.22854846  0.13601690  0.00950262    -0.20700
C1715       C  0.24856896  0.14199053  0.01861874    -0.10300
C1716       C  0.25876290  0.13260222  0.04544221    -0.10900
C1717       C  0.24849093  0.11646863  0.06227873    -0.03800
C1718       C  0.22839724  0.11011710  0.05252200    -0.18900
H1719       H  0.14989035  0.06046064  0.93475969     0.10200
H1720       H  0.18028182  0.06433897  0.97068625     0.10200
H1721       H  0.15273164  0.11917454  0.01296881     0.09900
H1722       H  0.12263983  0.11557626  0.97682015     0.11000
H1723       H  0.19930378  0.08295378  0.01696430     0.11100
H1724       H  0.18731035  0.12843225  0.00738037     0.13000
H1725       H  0.22104645  0.14390324  0.98914754     0.09500
H1726       H  0.25585915  0.15442767  0.00492603     0.11600
H1727       H  0.25592925  0.10884776  0.08290972     0.08200
H1728       H  0.22061770  0.09788324  0.06599241     0.11000
C1729       C  0.94523697  0.69304437  0.61765883    -0.03600
C1730       C  0.95177932  0.69667332  0.65016357    -0.06200
C1731       C  0.96959923  0.70868867  0.65647162    -0.21300
C1732       C  0.98102091  0.71741958  0.63044995     0.24400
C1733       C  0.97525841  0.71256008  0.59806723    -0.18900
C1734       C  0.95758647  0.70064374  0.59177589    -0.08800
C1735       C  0.99878669  0.73169472  0.63702167    -0.19100
C1736       C  0.00258064  0.74799862  0.61706651    -0.23900
C1737       C  0.02117329  0.76181889  0.61829200     0.26500
C1738       C  0.03564577  0.76208531  0.64436686    -0.20700
C1739       C  0.05385915  0.77411845  0.64207587    -0.10300
C1740       C  0.05797419  0.78578819  0.61361380    -0.10900
C1741       C  0.04306799  0.78624388  0.58844664    -0.03800
C1742       C  0.02482872  0.77460739  0.59093863    -0.18900
H1743       H  0.94268749  0.69095596  0.67068005     0.10200
H1744       H  0.97396779  0.71186148  0.68165218     0.10200
H1745       H  0.98427754  0.71819244  0.57742174     0.09900
H1746       H  0.95333043  0.69779000  0.56645162     0.11000
H1747       H  0.00853759  0.72867592  0.65825182     0.11100
H1748       H  0.99172727  0.75087959  0.59706673     0.13000
H1749       H  0.03330035  0.75274049  0.66611053     0.09500
H1750       H  0.06528562  0.77333381  0.66163303     0.11600
H1751       H  0.04591709  0.79504612  0.56620153     0.08200
H1752       H  0.01394820  0.77489259  0.57058305     0.11000
C1753       C  0.76697392  0.62603413  0.54926723    -0.03600
C1754       C  0.75870238  0.60873171  0.56585415    -0.06200
C1755       C  0.73945581  0.60018790  0.55626691    -0.21300
C1756       C  0.72779708  0.60911345  0.53059037     0.24400
C1757       C  0.73613688  0.62631814  0.51397756    -0.18900
C1758       C  0.75547942  0.63454344  0.52301295    -0.08800
C1759       C  0.70747466  0.59987565  0.52019393    -0.19100
C1760       C  0.69124344  0.61172606  0.51031139    -0.23900
C1761       C  0.67133043  0.60368232  0.49614945     0.26500
C1762       C  0.65345128  0.61624317  0.49771838    -0.20700
C1763       C  0.63549595  0.61131399  0.47978956    -0.10300
C1764       C  0.63494349  0.59373945  0.45938173    -0.10900
C1765       C  0.65239085  0.58040160  0.45943946    -0.03800
C1766       C  0.67039543  0.58531149  0.47761455    -0.18900
H1767       H  0.76720649  0.60166896  0.58596012     0.10200
H1768       H  0.73352599  0.58675002  0.56919566     0.10200
H1769       H  0.72786993  0.63323160  0.49350666     0.09900
H1770       H  0.76133655  0.64779883  0.50953836     0.11000
H1771       H  0.70580315  0.58315208  0.52117317     0.11100
H1772       H  0.69260571  0.62844692  0.51253316     0.13000
H1773       H  0.65367699  0.63046502  0.51179079     0.09500
H1774       H  0.62241642  0.62195194  0.48053591     0.11600
H1775       H  0.65268482  0.56688949  0.44373984     0.08200
H1776       H  0.68397900  0.57543241  0.47536160     0.11000
C1777       C  0.88694988  0.81616824  0.29897872    -0.03600
C1778       C  0.86554045  0.81418382  0.30602589    -0.06200
C1779       C  0.85837209  0.79848933  0.32703670    -0.21300
C1780       C  0.87235891  0.78429332  0.34122127     0.24400
C1781       C  0.89379340  0.78640581  0.33441569    -0.18900
C1782       C  0.90095313  0.80205736  0.31350344    -0.08800
C1783       C  0.86440321  0.76833236  0.36461338    -0.19100
C1784       C  0.87451023  0.75034016  0.37029753    -0.23900
C1785       C  0.86921880  0.73557355  0.39716549     0.26500
C1786       C  0.88526186  0.72288799  0.40923544    -0.20700
C1787       C  0.88190515  0.70984748  0.43604173    -0.10300
C1788       C  0.86224625  0.70879979  0.45123492    -0.10900
C1789       C  0.84576352  0.72065719  0.43819395    -0.03800
C1790       C  0.84923557  0.73405925  0.41147123    -0.18900
H1791       H  0.85429559  0.82477780  0.29536649     0.10200
H1792       H  0.84182765  0.79740281  0.33218364     0.10200
H1793       H  0.90522613  0.77637590  0.34584438     0.09900
H1794       H  0.91756826  0.80320375  0.30902428     0.11000
H1795       H  0.85024344  0.77191090  0.37807727     0.11100
H1796       H  0.88842252  0.74683430  0.35614161     0.13000
H1797       H  0.90073199  0.72356013  0.39854736     0.09500
H1798       H  0.89487955  0.70074034  0.44520725     0.11600
H1799       H  0.83042493  0.72009728  0.44932235     0.08200
H1800       H  0.83633209  0.74319829  0.40226825     0.11000
C1801       C  0.03153120  0.59405783  0.33404608    -0.03600
C1802       C  0.02090502  0.57683926  0.34700683    -0.06200
C1803       C  0.00670037  0.57929196  0.37290959    -0.21300
C1804       C  0.00288477  0.59894021  0.38648445     0.24400
C1805       C  0.01474952  0.61584689  0.37500964    -0.18900
C1806       C  0.02869512  0.61344689  0.34896982    -0.08800
C1807       C  0.98629097  0.60125062  0.41202413    -0.19100
C1808       C  0.97785394  0.61970089  0.42012020    -0.23900
C1809       C  0.96123702  0.62278126  0.44506934     0.26500
C1810       C  0.95968325  0.64233549  0.45972540    -0.20700
C1811       C  0.94352569  0.64685998  0.48145023    -0.10300
C1812       C  0.92825568  0.63196773  0.48898505    -0.10900
C1813       C  0.92991608  0.61217951  0.47471402    -0.03800
C1814       C  0.94627053  0.60760599  0.45290495    -0.18900
H1815       H  0.02282310  0.56164936  0.33617093     0.10200
H1816       H  0.99813996  0.56590506  0.38160614     0.10200
H1817       H  0.01336535  0.63108594  0.38566159     0.09900
H1818       H  0.03697237  0.62695587  0.34005987     0.11000
H1819       H  0.98057491  0.58728543  0.42386401     0.11100
H1820       H  0.98333890  0.63368201  0.40822097     0.13000
H1821       H  0.97097613  0.65430323  0.45409915     0.09500
H1822       H  0.94292651  0.66221612  0.49206852     0.11600
H1823       H  0.91836692  0.60038728  0.47985961     0.08200
H1824       H  0.94672817  0.59249760  0.44148586     0.11000
C1825       C  0.85503366  0.60330455  0.70906333    -0.03600
C1826       C  0.83931338  0.58814445  0.71152908    -0.06200
C1827       C  0.84227100  0.57028265  0.73081065    -0.21300
C1828       C  0.86104874  0.56699544  0.74790794     0.24400
C1829       C  0.87617444  0.58279801  0.74719810    -0.18900
C1830       C  0.87324397  0.60061110  0.72796480    -0.08800
C1831       C  0.86470899  0.54675535  0.76520825    -0.19100
C1832       C  0.88401224  0.53868699  0.76933205    -0.23900
C1833       C  0.88879859  0.51759184  0.78266114     0.26500
C1834       C  0.90792502  0.50858895  0.77383712    -0.20700
C1835       C  0.91337687  0.48879439  0.78470942    -0.10300
C1836       C  0.90002589  0.47738109  0.80529551    -0.10900
C1837       C  0.88113495  0.48657060  0.81533376    -0.03800
C1838       C  0.87546949  0.50646692  0.80390911    -0.18900
H1839       H  0.82504361  0.58963284  0.69748852     0.10200
H1840       H  0.83018485  0.55857947  0.73123312     0.10200
H1841       H  0.89048547  0.58137380  0.76109677     0.09900
H1842       H  0.88562920  0.61198472  0.72711831     0.11000
H1843       H  0.85120014  0.53753833  0.77187350     0.11100
H1844       H  0.89723250  0.54728074  0.75977723     0.13000
H1845       H  0.91861826  0.51676943  0.75780563     0.09500
H1846       H  0.92811090  0.48229426  0.77666588     0.11600
H1847       H  0.87050362  0.47814516  0.83111820     0.08200
H1848       H  0.86078547  0.51307862  0.81180835     0.11000
C1849       C  0.56623903  0.76668777  0.90808172    -0.03600
C1850       C  0.55604606  0.76769321  0.87752617    -0.06200
C1851       C  0.53883599  0.75489952  0.87100440    -0.21300
C1852       C  0.53177182  0.74059993  0.89458846     0.24400
C1853       C  0.54208741  0.73958989  0.92502245    -0.18900
C1854       C  0.55905556  0.75236767  0.93158614    -0.08800
C1855       C  0.51255999  0.72824046  0.88843767    -0.19100
C1856       C  0.50891558  0.71010725  0.90387083    -0.23900
C1857       C  0.48798135  0.70048045  0.90634118     0.26500
C1858       C  0.48275323  0.69073357  0.93600090    -0.20700
C1859       C  0.46266969  0.68320053  0.94126964    -0.10300
C1860       C  0.44742864  0.68468528  0.91662119    -0.10900
C1861       C  0.45290417  0.69338556  0.88610128    -0.03800
C1862       C  0.47301074  0.70145958  0.88108789    -0.18900
H1863       H  0.56115560  0.77855017  0.85889010     0.10200
H1864       H  0.53096390  0.75622397  0.84756150     0.10200
H1865       H  0.53670656  0.72946125  0.94444200     0.09900
H1866       H  0.56643750  0.75105902  0.95540517     0.11000
H1867       H  0.50059568  0.73503559  0.87289234     0.11100
H1868       H  0.52110816  0.70330962  0.91896202     0.13000
H1869       H  0.49403900  0.68968211  0.95574746     0.09500
H1870       H  0.45897586  0.67636579  0.96488987     0.11600
H1871       H  0.44145011  0.69463017  0.86664745     0.08200
H1872       H  0.47676091  0.70853744  0.85770087     0.11000
C1873       C  0.63970260  0.77038439  0.08315248    -0.03600
C1874       C  0.61920126  0.76792966  0.09486877    -0.06200
C1875       C  0.61505871  0.75521429  0.12174468    -0.21300
C1876       C  0.63121113  0.74437653  0.13731514     0.24400
C1877       C  0.65190024  0.74751602  0.12678418    -0.18900
C1878       C  0.65612248  0.76055168  0.09997062    -0.08800
C1879       C  0.62556127  0.72970700  0.16389102    -0.19100
C1880       C  0.63576860  0.71177211  0.16933086    -0.23900
C1881       C  0.62824202  0.69571691  0.19279125     0.26500
C1882       C  0.64239694  0.68093487  0.20487037    -0.20700
C1883       C  0.63577458  0.66533586  0.22640993    -0.10300
C1884       C  0.61473450  0.66403579  0.23604227    -0.10900
C1885       C  0.60051309  0.67866011  0.22351674    -0.03800
C1886       C  0.60712905  0.69422805  0.20207838    -0.18900
H1887       H  0.60619570  0.77545108  0.08269827     0.10200
H1888       H  0.59903239  0.75320813  0.12960719     0.10200
H1889       H  0.66475287  0.73979435  0.13897635     0.09900
H1890       H  0.67206436  0.76222575  0.09157282     0.11000
H1891       H  0.61148609  0.73320093  0.17760128     0.11100
H1892       H  0.64989878  0.70841928  0.15559550     0.13000
H1893       H  0.65866407  0.68150152  0.19769771     0.09500
H1894       H  0.64712048  0.65420907  0.23529514     0.11600
H1895       H  0.58415232  0.67804248  0.23010213     0.08200
H1896       H  0.59547052  0.70468652  0.19234831     0.11000
C1897       C  0.73969244  0.84174232  0.97859846    -0.03600
C1898       C  0.74465920  0.84521204  0.01177197    -0.06200
C1899       C  0.76439548  0.85232252  0.02085411    -0.21300
C1900       C  0.77982831  0.85605688  0.99703640     0.24400
C1901       C  0.77499229  0.85251310  0.96384797    -0.18900
C1902       C  0.75501592  0.84571070  0.95464021    -0.08800
C1903       C  0.80131639  0.86231689  0.00687909    -0.19100
C1904       C  0.80482371  0.87462355  0.03306457    -0.23900
C1905       C  0.82571183  0.87889182  0.04770573     0.26500
C1906       C  0.84296300  0.86568779  0.04309117    -0.20700
C1907       C  0.86122467  0.86840534  0.06153219    -0.10300
C1908       C  0.86276509  0.88444830  0.08479370    -0.10900
C1909       C  0.84590718  0.89822049  0.08817641    -0.03800
C1910       C  0.82758139  0.89536344  0.07002866    -0.18900
H1911       H  0.73326893  0.84232798  0.03088893     0.10200
H1912       H  0.76772854  0.85429204  0.04671606     0.10200
H1913       H  0.78668027  0.85503091  0.94504654     0.09900
H1914       H  0.75172900  0.84306443  0.92890531     0.11000
H1915       H  0.81430349  0.85659173  0.99237998     0.11100
H1916       H  0.79148300  0.88167895  0.04516703     0.13000
H1917       H  0.84209530  0.85259590  0.02663239     0.09500
H1918       H  0.87392169  0.85749492  0.05834623     0.11600
H1919       H  0.84645110  0.91059234  0.10607206     0.08200
H1920       H  0.81451230  0.90568162  0.07429391     0.11000
C1921       C  0.72090592  0.77668176  0.84977620    -0.03600
C1922       C  0.72493916  0.78621304  0.81943532    -0.06200
C1923       C  0.73744310  0.77624916  0.79602531    -0.21300
C1924       C  0.74603990  0.75657631  0.80242727     0.24400
C1925       C  0.74307797  0.74767719  0.83357896    -0.18900
C1926       C  0.73060353  0.75760278  0.85692148    -0.08800
C1927       C  0.75782113  0.74582620  0.77596862    -0.19100
C1928       C  0.75890201  0.72496664  0.77288081    -0.23900
C1929       C  0.76942613  0.71441600  0.74474949     0.26500
C1930       C  0.77610333  0.69367659  0.74788305    -0.20700
C1931       C  0.78692969  0.68380292  0.72219530    -0.10300
C1932       C  0.79120980  0.69457710  0.69296413    -0.10900
C1933       C  0.78348820  0.71485489  0.68930550    -0.03800
C1934       C  0.77262310  0.72456991  0.71460805    -0.18900
H1935       H  0.71762505  0.80084088  0.81319597     0.10200
H1936       H  0.73973314  0.78356378  0.77232838     0.10200
H1937       H  0.75016437  0.73297352  0.83989856     0.09900
H1938       H  0.72807511  0.75005108  0.88037241     0.11000
H1939       H  0.76501753  0.75569270  0.75763013     0.11100
H1940       H  0.75177890  0.71516620  0.79143314     0.13000
H1941       H  0.77347938  0.68531243  0.77059986     0.09500
H1942       H  0.79271621  0.66818216  0.72571701     0.11600
H1943       H  0.78618208  0.72343541  0.66680320     0.08200
H1944       H  0.76682435  0.74006210  0.71022530     0.11000
C1945       C  0.46033004  0.79846387  0.35839195    -0.03600
C1946       C  0.46353541  0.79153594  0.39082490    -0.06200
C1947       C  0.47683328  0.77464702  0.39733470    -0.21300
C1948       C  0.48740787  0.76455350  0.37166038     0.24400
C1949       C  0.48345347  0.77092238  0.33921811    -0.18900
C1950       C  0.47017536  0.78760439  0.33271427    -0.08800
C1951       C  0.50178672  0.74686728  0.37873126    -0.19100
C1952       C  0.51849229  0.74274156  0.35954389    -0.23900
C1953       C  0.53131564  0.72342499  0.36089372     0.26500
C1954       C  0.53109790  0.70942701  0.38753040    -0.20700
C1955       C  0.54174577  0.69041511  0.38546571    -0.10300
C1956       C  0.55254216  0.68497390  0.35667349    -0.10900
C1957       C  0.55366558  0.69943994  0.33093182    -0.03800
C1958       C  0.54338878  0.71847611  0.33319305    -0.18900
H1959       H  0.45627023  0.79951662  0.41121340     0.10200
H1960       H  0.47928750  0.76979631  0.42252269     0.10200
H1961       H  0.49051134  0.76295403  0.31865117     0.09900
H1962       H  0.46792633  0.79220666  0.30736854     0.11000
H1963       H  0.49805854  0.73693484  0.39940990     0.11100
H1964       H  0.52212773  0.75349660  0.33980468     0.13000
H1965       H  0.52245531  0.71282897  0.40967191     0.09500
H1966       H  0.54065951  0.67955180  0.40570233     0.11600
H1967       H  0.56204776  0.69577880  0.30856531     0.08200
H1968       H  0.54411034  0.72900144  0.31245565     0.11000
C1969       C  0.35066580  0.10530295  0.20324329    -0.03600
C1970       C  0.36744910  0.10506260  0.22554700    -0.06200
C1971       C  0.37130301  0.08772824  0.24551097    -0.21300
C1972       C  0.35882300  0.06993135  0.24328191     0.24400
C1973       C  0.34131516  0.07051765  0.22235730    -0.18900
C1974       C  0.33719792  0.08806212  0.20277400    -0.08800
C1975       C  0.36505380  0.05089063  0.26209912    -0.19100
C1976       C  0.36308103  0.03159598  0.24973104    -0.23900
C1977       C  0.37275422  0.01261640  0.26464524     0.26500
C1978       C  0.38016394  0.99719707  0.24343908    -0.20700
C1979       C  0.38934045  0.97908444  0.25568285    -0.10300
C1980       C  0.39104285  0.97541641  0.28975272    -0.10900
C1981       C  0.38329219  0.99071910  0.31122609    -0.03800
C1982       C  0.37441472  0.00922898  0.29880535    -0.18900
H1983       H  0.37809532  0.11804342  0.22679560     0.10200
H1984       H  0.38474115  0.08785146  0.26162944     0.10200
H1985       H  0.33102223  0.05728847  0.22064939     0.09900
H1986       H  0.32408931  0.08766415  0.18601572     0.11000
H1987       H  0.37384891  0.05296081  0.28464378     0.11100
H1988       H  0.35616237  0.02988009  0.22553476     0.13000
H1989       H  0.37908856  0.99928087  0.21707831     0.09500
H1990       H  0.39496386  0.96777946  0.23816024     0.11600
H1991       H  0.38429297  0.98849127  0.33753760     0.08200
H1992       H  0.36856732  0.02068708  0.31586951     0.11000
C1993       C  0.57542335  0.84311069  0.03555270    -0.03600
C1994       C  0.55853127  0.82978009  0.04132710    -0.06200
C1995       C  0.54281462  0.83525019  0.06338458    -0.21300
C1996       C  0.54358518  0.85408232  0.08052562     0.24400
C1997       C  0.56041722  0.86759793  0.07456989    -0.18900
C1998       C  0.57611968  0.86217018  0.05219615    -0.08800
C1999       C  0.52632407  0.85868486  0.10392070    -0.19100
C2000       C  0.52627121  0.87411862  0.12622370    -0.23900
C2001       C  0.50901467  0.87706552  0.15033988     0.26500
C2002       C  0.50596082  0.89659862  0.16481527    -0.20700
C2003       C  0.49050476  0.89953439  0.18878774    -0.10300
C2004       C  0.47804262  0.88284944  0.19909853    -0.10900
C2005       C  0.48093177  0.86342215  0.18426694    -0.03800
C2006       C  0.49623555  0.86051589  0.16038472    -0.18900
H2007       H  0.55745142  0.81502879  0.02882725     0.10200
H2008       H  0.53004835  0.82454808  0.06731135     0.10200
H2009       H  0.56158352  0.88238341  0.08678374     0.09900
H2010       H  0.58899935  0.87274282  0.04836980     0.11000
H2011       H  0.51295082  0.84845618  0.10267201     0.11100
H2012       H  0.53911005  0.88498910  0.12722204     0.13000
H2013       H  0.51571815  0.90956079  0.15780773     0.09500
H2014       H  0.48883645  0.91461952  0.20008393     0.11600
H2015       H  0.47165731  0.85021445  0.19174596     0.08200
H2016       H  0.49842121  0.84503486  0.15092030     0.11000
C2017       C  0.36718042  0.70658959  0.08598753    -0.03600
C2018       C  0.38732498  0.70857146  0.09919665    -0.06200
C2019       C  0.39116504  0.72219547  0.12501546    -0.21300
C2020       C  0.37509917  0.73447501  0.13798247     0.24400
C2021       C  0.35468508  0.73190093  0.12584414    -0.18900
C2022       C  0.35076674  0.71798905  0.10014835    -0.08800
C2023       C  0.38073202  0.75001886  0.16335101    -0.19100
C2024       C  0.36984354  0.76749987  0.16922288    -0.23900
C2025       C  0.37769987  0.78410916  0.19125617     0.26500
C2026       C  0.36340793  0.79727939  0.20690615    -0.20700
C2027       C  0.37037836  0.81338503  0.22704857    -0.10300
C2028       C  0.39186634  0.81682677  0.23170661    -0.10900
C2029       C  0.40616561  0.80380027  0.21561897    -0.03800
C2030       C  0.39918996  0.78771238  0.19553556    -0.18900
H2031       H  0.40028628  0.69988010  0.08908725     0.10200
H2032       H  0.40697527  0.72368858  0.13410866     0.10200
H2033       H  0.34176830  0.74065032  0.13585054     0.09900
H2034       H  0.33506375  0.71674658  0.09055284     0.11000
H2035       H  0.39537679  0.74754460  0.17616785     0.11100
H2036       H  0.35498063  0.77009809  0.15714683     0.13000
H2037       H  0.34679073  0.79502027  0.20368718     0.09500
H2038       H  0.35889480  0.82312196  0.23899044     0.11600
H2039       H  0.42280757  0.80612624  0.21827720     0.08200
H2040       H  0.41072396  0.77846434  0.18283331     0.11000
C2041       C  0.24252946  0.83653731  0.55156444    -0.03600
C2042       C  0.25460734  0.82380450  0.53097008    -0.06200
C2043       C  0.27404891  0.83026600  0.51929832    -0.21300
C2044       C  0.28202923  0.84987686  0.52709025     0.24400
C2045       C  0.27016236  0.86275242  0.54798378    -0.18900
C2046       C  0.25067184  0.85604316  0.56035764    -0.08800
C2047       C  0.30302848  0.85550505  0.51346480    -0.19100
C2048       C  0.30971845  0.87493722  0.50665377    -0.23900
C2049       C  0.32997796  0.87926003  0.48914811     0.26500
C2050       C  0.33227322  0.89759711  0.47068636    -0.20700
C2051       C  0.35031465  0.90119663  0.45174632    -0.10300
C2052       C  0.36664959  0.88656469  0.45088563    -0.10900
C2053       C  0.36481767  0.86880286  0.47086250    -0.03800
C2054       C  0.34687606  0.86525937  0.48980552    -0.18900
H2055       H  0.24901840  0.80864445  0.52382725     0.10200
H2056       H  0.28281233  0.81989630  0.50357147     0.10200
H2057       H  0.27598659  0.87781902  0.55505991     0.09900
H2058       H  0.24179291  0.86625221  0.57616125     0.11000
H2059       H  0.31271077  0.84257023  0.50588332     0.11100
H2060       H  0.29933990  0.88790014  0.51143230     0.13000
H2061       H  0.31971585  0.90884004  0.46990201     0.09500
H2062       H  0.35103974  0.91501657  0.43666416     0.11600
H2063       H  0.37708037  0.85723868  0.47121731     0.08200
H2064       H  0.34629338  0.85136327  0.50465524     0.11000
C2065       C  0.45766359  0.29643963  0.66108439    -0.03600
C2066       C  0.46016879  0.28883592  0.62891229    -0.06200
C2067       C  0.47173877  0.27066120  0.62313253    -0.21300
C2068       C  0.48121511  0.26000107  0.64932534     0.24400
C2069       C  0.47779371  0.26709965  0.68147928    -0.18900
C2070       C  0.46627482  0.28502317  0.68725132    -0.08800
C2071       C  0.49424152  0.24121218  0.64350934    -0.19100
C2072       C  0.51083867  0.23709927  0.66283336    -0.23900
C2073       C  0.52211799  0.21699221  0.66475377     0.26500
C2074       C  0.52260825  0.20232890  0.63920699    -0.20700
C2075       C  0.53311387  0.18336436  0.64356748    -0.10300
C2076       C  0.54288991  0.17867026  0.67366010    -0.10900
C2077       C  0.54250802  0.19346884  0.69880487    -0.03800
C2078       C  0.53249245  0.21243065  0.69423875    -0.18900
H2079       H  0.45363502  0.29716123  0.60820315     0.10200
H2080       H  0.47378419  0.26526215  0.59817518     0.10200
H2081       H  0.48400354  0.25876399  0.70241744     0.09900
H2082       H  0.46444450  0.29008721  0.71242512     0.11000
H2083       H  0.48953586  0.23046483  0.62446888     0.11100
H2084       H  0.51539279  0.24867229  0.68078234     0.13000
H2085       H  0.51500940  0.20544010  0.61599131     0.09500
H2086       H  0.53309729  0.17215487  0.62381929     0.11600
H2087       H  0.54994685  0.19034910  0.72218908     0.08200
H2088       H  0.53240484  0.22342798  0.71430255     0.11000
C2089       C  0.41848554  0.13416215  0.97620553    -0.03600
C2090       C  0.42829096  0.14964110  0.95746580    -0.06200
C2091       C  0.44489987  0.14473721  0.93679582    -0.21300
C2092       C  0.45222015  0.12429672  0.93438333     0.24400
C2093       C  0.44211834  0.10868212  0.95266662    -0.18900
C2094       C  0.42538660  0.11359605  0.97327957    -0.08800
C2095       C  0.47031922  0.12030474  0.91244062    -0.19100
C2096       C  0.47978837  0.10181469  0.90864723    -0.23900
C2097       C  0.49715396  0.09882631  0.88510158     0.26500
C2098       C  0.49916988  0.07975139  0.86894938    -0.20700
C2099       C  0.51418784  0.07709437  0.84438602    -0.10300
C2100       C  0.52743123  0.09351307  0.83567989    -0.10900
C2101       C  0.52622539  0.11219015  0.85321415    -0.03800
C2102       C  0.51135238  0.11478184  0.87788349    -0.18900
H2103       H  0.42323539  0.16563710  0.95890605     0.10200
H2104       H  0.45221156  0.15707033  0.92286659     0.10200
H2105       H  0.44694191  0.09267805  0.95149845     0.09900
H2106       H  0.41813602  0.10133695  0.98742805     0.11000
H2107       H  0.47587258  0.13338178  0.89808169     0.11100
H2108       H  0.47408954  0.08816822  0.92123566     0.13000
H2109       H  0.48852501  0.06718370  0.87437455     0.09500
H2110       H  0.51472236  0.06259207  0.83108679     0.11600
H2111       H  0.53648322  0.12498650  0.84727978     0.08200
H2112       H  0.51081042  0.12938377  0.89086625     0.11000
C2113       C  0.59783817  0.99556135  0.72996625    -0.03600
C2114       C  0.58468215  0.98392454  0.75057006    -0.06200
C2115       C  0.59031185  0.96405360  0.76086597    -0.21300
C2116       C  0.60947789  0.95535053  0.75161926     0.24400
C2117       C  0.62258608  0.96667512  0.73037085    -0.18900
C2118       C  0.61669841  0.98656552  0.71937724    -0.08800
C2119       C  0.61478619  0.93439694  0.76467441    -0.19100
C2120       C  0.63428411  0.92813895  0.77249720    -0.23900
C2121       C  0.63864864  0.90826326  0.79033251     0.26500
C2122       C  0.65677886  0.90644424  0.80960108    -0.20700
C2123       C  0.66064650  0.88851417  0.82830374    -0.10300
C2124       C  0.64650781  0.87185786  0.82799390    -0.10900
C2125       C  0.62875011  0.87343664  0.80776014    -0.03800
C2126       C  0.62493091  0.89127658  0.78908983    -0.18900
H2127       H  0.56997243  0.99027231  0.75900417     0.10200
H2128       H  0.57982666  0.95562956  0.77692287     0.10200
H2129       H  0.63727609  0.96018328  0.72220759     0.09900
H2130       H  0.62714373  0.99513894  0.70348431     0.11000
H2131       H  0.60167988  0.92470419  0.77155614     0.11100
H2132       H  0.64720534  0.93870814  0.76847635     0.13000
H2133       H  0.66771203  0.91918804  0.81093065     0.09500
H2134       H  0.67441486  0.88795372  0.84368401     0.11600
H2135       H  0.61752164  0.86094456  0.80664305     0.08200
H2136       H  0.61116337  0.89161916  0.77375946     0.11000
C2137       C  0.53885700  0.02366998  0.59778218    -0.03600
C2138       C  0.55044073  0.01690609  0.57059064    -0.06200
C2139       C  0.54079812  0.00550923  0.54549008    -0.21300
C2140       C  0.51940390  0.00050158  0.54697069     0.24400
C2141       C  0.50813579  0.00634425  0.57512399    -0.18900
C2142       C  0.51771757  0.01781371  0.60002054    -0.08800
C2143       C  0.50976119  0.98909913  0.51878393    -0.19100
C2144       C  0.48899032  0.98599598  0.51438664    -0.23900
C2145       C  0.47960256  0.97425281  0.48620953     0.26500
C2146       C  0.45768792  0.97259742  0.48374373    -0.20700
C2147       C  0.44830387  0.96090272  0.45862081    -0.10300
C2148       C  0.46067994  0.95050190  0.43543565    -0.10900
C2149       C  0.48251440  0.95268947  0.43741537    -0.03800
C2150       C  0.49181645  0.96426061  0.46227708    -0.18900
H2151       H  0.56671172  0.02110769  0.56807204     0.10200
H2152       H  0.55003284  0.00098609  0.52439947     0.10200
H2153       H  0.49190911  0.00230796  0.57820880     0.09900
H2154       H  0.50837480  0.02243244  0.62094298     0.11000
H2155       H  0.52066473  0.98350364  0.50058554     0.11100
H2156       H  0.47808222  0.99233193  0.53204033     0.13000
H2157       H  0.44776353  0.98012689  0.50165526     0.09500
H2158       H  0.43147257  0.95956816  0.45787890     0.11600
H2159       H  0.49266497  0.94513737  0.41983516     0.08200
H2160       H  0.50862365  0.96482370  0.46250483     0.11000
C2161       C  0.60811968  0.15468562  0.80703500    -0.03600
C2162       C  0.59287284  0.16409801  0.82683868    -0.06200
C2163       C  0.59832611  0.17904343  0.84993181    -0.21300
C2164       C  0.61915212  0.18520669  0.85398794     0.24400
C2165       C  0.63464369  0.17542218  0.83487523    -0.18900
C2166       C  0.62915422  0.16022857  0.81173816    -0.08800
C2167       C  0.62329980  0.20231646  0.87768920    -0.19100
C2168       C  0.64205048  0.21076037  0.88453867    -0.23900
C2169       C  0.64413783  0.22848002  0.90779908     0.26500
C2170       C  0.66243923  0.23076478  0.92643459    -0.20700
C2171       C  0.66406830  0.24656845  0.94991982    -0.10300
C2172       C  0.64737444  0.26034709  0.95517794    -0.10900
C2173       C  0.62952372  0.25866553  0.93542416    -0.03800
C2174       C  0.62801227  0.24311394  0.91177858    -0.18900
H2175       H  0.57656323  0.16002539  0.82439883     0.10200
H2176       H  0.58603379  0.18610351  0.86438112     0.10200
H2177       H  0.65090209  0.17954268  0.83722585     0.09900
H2178       H  0.64131487  0.15315936  0.79705664     0.11000
H2179       H  0.60972269  0.20838018  0.89042188     0.11100
H2180       H  0.65618846  0.20430311  0.87410642     0.13000
H2181       H  0.67522234  0.21992021  0.92354012     0.09500
H2182       H  0.67803221  0.24751782  0.96480885     0.11600
H2183       H  0.61659801  0.26933195  0.93844740     0.08200
H2184       H  0.61409766  0.24257084  0.89677942     0.11000
C2185       C  0.63508052  0.09253750  0.58267705    -0.03600
C2186       C  0.63363070  0.10883930  0.55972658    -0.06200
C2187       C  0.65087241  0.11489619  0.54104939    -0.21300
C2188       C  0.67012356  0.10474505  0.54421900     0.24400
C2189       C  0.67141000  0.08751079  0.56552436    -0.18900
C2190       C  0.65403071  0.08147676  0.58460918    -0.08800
C2191       C  0.68870419  0.11429157  0.52787698    -0.19100
C2192       C  0.70610623  0.10405267  0.51857422    -0.23900
C2193       C  0.72453716  0.11495728  0.50392395     0.26500
C2194       C  0.73680121  0.10509243  0.47993093    -0.20700
C2195       C  0.75473517  0.11472046  0.46711211    -0.10300
C2196       C  0.76118257  0.13420818  0.47872851    -0.10900
C2197       C  0.74885181  0.14407660  0.50267589    -0.03800
C2198       C  0.73070292  0.13468798  0.51488862    -0.18900
H2199       H  0.61931618  0.11764602  0.55719181     0.10200
H2200       H  0.64933323  0.12813434  0.52481213     0.10200
H2201       H  0.68608577  0.07946856  0.56890987     0.09900
H2202       H  0.65578949  0.06896756  0.60216316     0.11000
H2203       H  0.68771568  0.13077050  0.52255905     0.11100
H2204       H  0.70667756  0.08729370  0.52078001     0.13000
H2205       H  0.73254527  0.08983927  0.47120002     0.09500
H2206       H  0.76402002  0.10654718  0.44906370     0.11600
H2207       H  0.75342980  0.15899989  0.51237705     0.08200
H2208       H  0.72193505  0.14258634  0.53384164     0.11000
loop_ 
_geom_bond_atom_site_label_1 
_geom_bond_atom_site_label_2 
_geom_bond_distance 
_geom_bond_site_symmetry_2 
_ccdc_geom_bond_type 
Zr1           O2   2.440       .  S
Zr1           O3   2.479       .  S
Zr1           O4   2.476       .  S
Zr1           O7   2.486       .  S
Zr1           O9   2.389       .  S
Zr1          O10   2.392       .  S
Zr1          O11   2.426       .  S
Zr1          O12   2.405       .  S
O2           H58   0.990       .  S
O2           H66   0.990       .  S
O3           C23   1.292       .  A
O4           C25   1.291       .  A
O5          Zr15   2.418       .  S
O5           C24   1.284       .  A
O6          Zr14   2.413       .  S
O6           C25   1.282       .  A
O7           C24   1.294       .  A
O8          Zr16   2.400       .  S
O8           C23   1.278       .  A
O9          Zr14   2.398       .  S
O9          Zr16   2.377       .  S
O10         Zr15   2.398       .  S
O10         Zr16   2.382       .  S
O10          H45   0.967       .  S
O11         Zr14   2.405       .  S
O11         Zr31   2.409       .  S
O11          H48   0.966       .  S
O12         Zr15   2.394       .  S
O12         Zr31   2.395       .  S
Zr13         O38   2.442       .  S
Zr13         O32   2.429       .  S
Zr13         O40   2.434       .  S
Zr13         O28   2.417       .  S
Zr13         O19   2.395       .  S
Zr13         O20   2.402       .  S
Zr13         O21   2.375       .  S
Zr13         O22   2.375       .  S
Zr14         O33   2.436       .  S
Zr14         O26   2.436       .  S
Zr14         O27   2.440       .  S
Zr14         O20   2.391       .  S
Zr14         O21   2.386       .  S
Zr15         O17   2.435       .  S
Zr15         O39   2.439       .  S
Zr15         O41   2.437       .  S
Zr15         O19   2.387       .  S
Zr15         O22   2.398       .  S
Zr16         O42   2.435       .  S
Zr16         O43   2.435       .  S
Zr16         O18   2.439       .  S
Zr16         O19   2.389       .  S
Zr16         O20   2.383       .  S
O17          H54   0.990       .  S
O18          H49   0.990       .  S
O18          H63   0.990       .  S
O20          H46   0.966       .  S
O21         Zr31   2.373       .  S
O22         Zr31   2.385       .  S
O22          H47   0.966       .  S
C23        C2137   1.491       .  S
C24        C2185   1.497       .  S
C25        C2113   1.489   1_545  S
O26          H62   0.990       .  S
O27          C29   1.286       .  A
O28          C29   1.282       .  A
C29        C2100   1.474       .  S
O30         Zr31   2.435       .  S
O30          H59   0.990       .  S
Zr31         O34   2.436       .  S
Zr31         O35   2.437       .  S
Zr31         O36   2.439       .  S
O32          C37   1.284       .  A
O33          H50   0.990       .  S
O33          H65   0.990       .  S
O34          H51   0.990       .  S
O35          H55   0.990       .  S
O35          H64   0.989       .  S
O36          C37   1.284       .  A
C37        C2161   1.489       .  S
O38          H57   0.991       .  S
O38          H61   0.990       .  S
O39          H53   0.990       .  S
O39          H60   0.990       .  S
O40          C44   1.285       .  A
O41          C44   1.285       .  A
O42          H52   0.990       .  S
O43          H56   0.990       .  S
C44        C2076   1.482       .  S
Zr67         O68   2.441       .  S
Zr67         O69   2.481       .  S
Zr67         O70   2.487       .  S
Zr67         O73   2.496       .  S
Zr67         O75   2.397       .  S
Zr67         O76   2.394       .  S
Zr67         O77   2.426       .  S
Zr67         O78   2.415       .  S
O68         H124   0.990       .  S
O68         H132   0.991       .  S
O69          C89   1.292       .  A
O70          C91   1.294       .  A
O71         Zr81   2.415       .  S
O71          C90   1.283       .  A
O72         Zr80   2.441       .  S
O72          C91   1.287       .  A
O73          C90   1.296       .  A
O74         Zr82   2.388       .  S
O74          C89   1.277       .  A
O75         Zr80   2.405       .  S
O75         Zr82   2.389       .  S
O76         Zr81   2.397       .  S
O76         Zr82   2.377       .  S
O76         H111   0.967       .  S
O77         Zr80   2.416       .  S
O77         Zr97   2.383       .  S
O77         H114   0.964       .  S
O78         Zr81   2.398       .  S
O78         Zr97   2.399       .  S
Zr79        O104   2.444       .  S
Zr79         O98   2.434       .  S
Zr79        O106   2.425       .  S
Zr79         O94   2.425       .  S
Zr79         O85   2.400       .  S
Zr79         O86   2.402       .  S
Zr79         O87   2.378       .  S
Zr79         O88   2.380       .  S
Zr80         O99   2.438       .  S
Zr80         O92   2.436       .  S
Zr80         O93   2.470       .  S
Zr80         O86   2.393       .  S
Zr80         O87   2.400       .  S
Zr81         O83   2.435       .  S
Zr81        O105   2.439       .  S
Zr81        O107   2.440       .  S
Zr81         O85   2.387       .  S
Zr81         O88   2.401       .  S
Zr82        O108   2.435       .  S
Zr82        O109   2.437       .  S
Zr82         O84   2.437       .  S
Zr82         O85   2.385       .  S
Zr82         O86   2.373       .  S
O83         H120   0.990       .  S
O84         H115   0.990       .  S
O84         H129   0.990       .  S
O86         H112   0.965       .  S
O87         Zr97   2.382       .  S
O88         Zr97   2.374       .  S
O88         H113   0.965       .  S
C89        C2148   1.492       .  S
C90        C1980   1.504       .  S
C91        C2052   1.500       .  S
O92         H128   0.990       .  S
O93          C95   1.291       .  A
O94          C95   1.284       .  A
C95        C1945   1.493       .  S
O96         Zr97   2.434       .  S
O96         H125   0.990       .  S
Zr97        O100   2.437       .  S
Zr97        O101   2.439       .  S
Zr97        O102   2.420       .  S
O98         C103   1.284       .  A
O99         H116   0.990       .  S
O99         H131   0.990       .  S
O100        H117   0.989       .  S
O101        H121   0.990       .  S
O101        H130   0.989       .  S
O102        C103   1.281       .  A
C103       C2028   1.486       .  S
O104        H123   0.991       .  S
O104        H127   0.991       .  S
O105        H119   0.990       .  S
O105        H126   0.990       .  S
O106        C110   1.282       .  A
O107        C110   1.285       .  A
O108        H118   0.990       .  S
O109        H122   0.990       .  S
C110       C2004   1.482       .  S
Zr133       O134   2.441       .  S
Zr133       O135   2.460       .  S
Zr133       O136   2.463       .  S
Zr133       O139   2.473       .  S
Zr133       O141   2.389       .  S
Zr133       O142   2.396       .  S
Zr133       O143   2.421       .  S
Zr133       O144   2.394       .  S
O134        H190   0.990       .  S
O134        H198   0.991       .  S
O135        C155   1.288       .  A
O136        C157   1.288       .  A
O137       Zr147   2.429       .  S
O137        C156   1.285       .  A
O138       Zr146   2.424       .  S
O138        C157   1.283       .  A
O139        C156   1.293       .  A
O140       Zr148   2.403       .  S
O140        C155   1.278       .  A
O141       Zr146   2.395       .  S
O141       Zr148   2.378       .  S
O142       Zr147   2.403       .  S
O142       Zr148   2.389       .  S
O142        H177   0.965       .  S
O143       Zr146   2.407       .  S
O143       Zr163   2.402       .  S
O143        H180   0.967       .  S
O144       Zr147   2.388       .  S
O144       Zr163   2.382       .  S
Zr145       O170   2.441       .  S
Zr145       O164   2.428   1_556  S
Zr145       O172   2.417       .  S
Zr145       O160   2.415   1_556  S
Zr145       O151   2.389       .  S
Zr145       O152   2.401       .  S
Zr145       O153   2.373   1_556  S
Zr145       O154   2.376       .  S
Zr146       O165   2.438   1_556  S
Zr146       O158   2.435   1_556  S
Zr146       O159   2.443   1_556  S
Zr146       O152   2.394       .  S
Zr146       O153   2.393   1_556  S
Zr147       O149   2.434       .  S
Zr147       O171   2.437       .  S
Zr147       O173   2.450       .  S
Zr147       O151   2.380       .  S
Zr147       O154   2.398       .  S
Zr148       O174   2.436       .  S
Zr148       O175   2.435       .  S
Zr148       O150   2.439       .  S
Zr148       O151   2.381       .  S
Zr148       O152   2.396       .  S
O149        H186   0.990       .  S
O150        H181   0.990       .  S
O150        H195   0.990       .  S
O152        H178   0.967       .  S
O153       Zr163   2.371   1_554  S
O154       Zr163   2.390       .  S
O154        H179   0.968       .  S
C155       C1921   1.482       .  S
C156       C2124   1.494       .  S
C157       C1897   1.488       .  S
O158        H194   0.990       .  S
O159        C161   1.286       .  A
O160        C161   1.280       .  A
C161       C1873   1.480       .  S
O162       Zr163   2.436       .  S
O162        H191   0.990       .  S
Zr163       O166   2.437   1_556  S
Zr163       O167   2.437       .  S
Zr163       O168   2.427   1_556  S
O164        C169   1.283       .  A
O165        H182   0.990       .  S
O165        H197   0.990       .  S
O166        H183   0.990       .  S
O167        H187   0.990       .  S
O167        H196   0.990       .  S
O168        C169   1.282       .  A
C169       C1993   1.482       .  S
O170        H189   0.990   1_556  S
O170        H193   0.990   1_556  S
O171        H185   0.990       .  S
O171        H192   0.990       .  S
O172        C176   1.283       .  A
O173        C176   1.288       .  A
O174        H184   0.990       .  S
O175        H188   0.990       .  S
C176       C1849   1.487       .  S
Zr199       O200   2.442       .  S
Zr199       O201   2.481       .  S
Zr199       O202   2.470       .  S
Zr199       O205   2.466       .  S
Zr199       O207   2.382       .  S
Zr199       O208   2.394       .  S
Zr199       O209   2.423       .  S
Zr199       O210   2.421       .  S
O200        H256   0.990       .  S
O200        H264   0.990       .  S
O201        C221   1.290       .  A
O202        C223   1.291       .  A
O203       Zr213   2.425       .  S
O203        C222   1.284       .  A
O204       Zr212   2.444       .  S
O204        C223   1.287       .  A
O205        C222   1.290       .  A
O206       Zr214   2.385       .  S
O206        C221   1.276       .  A
O207       Zr212   2.400       .  S
O207       Zr214   2.393       .  S
O208       Zr213   2.402       .  S
O208       Zr214   2.378       .  S
O208        H243   0.966       .  S
O209       Zr212   2.406       .  S
O209       Zr229   2.391       .  S
O209        H246   0.965       .  S
O210       Zr213   2.399       .  S
O210       Zr229   2.404       .  S
Zr211       O236   2.441       .  S
Zr211       O230   2.416       .  S
Zr211       O238   2.416       .  S
Zr211       O226   2.435       .  S
Zr211       O217   2.396       .  S
Zr211       O218   2.397       .  S
Zr211       O219   2.374       .  S
Zr211       O220   2.382       .  S
Zr212       O231   2.438       .  S
Zr212       O224   2.434       .  S
Zr212       O225   2.447       .  S
Zr212       O218   2.402       .  S
Zr212       O219   2.398       .  S
Zr213       O215   2.436       .  S
Zr213       O237   2.443       .  S
Zr213       O239   2.455       .  S
Zr213       O217   2.385       .  S
Zr213       O220   2.393       .  S
Zr214       O240   2.439       .  S
Zr214       O241   2.439       .  S
Zr214       O216   2.437       .  S
Zr214       O217   2.378       .  S
Zr214       O218   2.384       .  S
O215        H252   0.990       .  S
O216        H247   0.990       .  S
O216        H261   0.990       .  S
O218        H244   0.964       .  S
O219       Zr229   2.378       .  S
O220       Zr229   2.369       .  S
O220        H245   0.968       .  S
C221       C1932   1.484       .  S
C222       C1753   1.493       .  S
C223       C1825   1.497       .  S
O224        H260   0.990       .  S
O225        C227   1.287       .  A
O226        C227   1.285       .  A
C227       C1729   1.488       .  S
O228       Zr229   2.435       .  S
O228        H257   0.990       .  S
Zr229       O232   2.435       .  S
Zr229       O233   2.438       .  S
Zr229       O234   2.441       .  S
O230        C235   1.282       .  A
O231        H248   0.990       .  S
O231        H263   0.990       .  S
O232        H249   0.990       .  S
O233        H253   0.990       .  S
O233        H262   0.989       .  S
O234        C235   1.284       .  A
C235       C1812   1.487       .  S
O236        H255   0.990       .  S
O236        H259   0.990       .  S
O237        H251   0.990       .  S
O237        H258   0.990       .  S
O238        C242   1.283       .  A
O239        C242   1.288       .  A
O240        H250   0.990       .  S
O241        H254   0.990       .  S
C242       C1788   1.484       .  S
Zr265       O266   2.442       .  S
Zr265       O267   2.475       .  S
Zr265       O268   2.462       .  S
Zr265       O271   2.474       .  S
Zr265       O273   2.389       .  S
Zr265       O274   2.390       .  S
Zr265       O275   2.422       .  S
Zr265       O276   2.408       .  S
O266        H322   0.990       .  S
O266        H330   0.991       .  S
O267        C287   1.291       .  A
O268        C289   1.289       .  A
O269       Zr279   2.416       .  S
O269        C288   1.283       .  A
O270       Zr278   2.427       .  S
O270        C289   1.285       .  A
O271        C288   1.291       .  A
O272       Zr280   2.393       .  S
O272        C287   1.277       .  A
O273       Zr278   2.406       .  S
O273       Zr280   2.381       .  S
O274       Zr279   2.398       .  S
O274       Zr280   2.380       .  S
O274        H309   0.967       .  S
O275       Zr278   2.411       .  S
O275       Zr295   2.395       .  S
O275        H312   0.965       .  S
O276       Zr279   2.394       .  S
O276       Zr295   2.396       .  S
Zr277       O302   2.440       .  S
Zr277       O296   2.422       .  S
Zr277       O304   2.422       .  S
Zr277       O292   2.422       .  S
Zr277       O283   2.400       .  S
Zr277       O284   2.394       .  S
Zr277       O285   2.375       .  S
Zr277       O286   2.373       .  S
Zr278       O297   2.437       .  S
Zr278       O290   2.435       .  S
Zr278       O291   2.465       .  S
Zr278       O284   2.392       .  S
Zr278       O285   2.394       .  S
Zr279       O281   2.435       .  S
Zr279       O303   2.437       .  S
Zr279       O305   2.434       .  S
Zr279       O283   2.393       .  S
Zr279       O286   2.391       .  S
Zr280       O306   2.434       .  S
Zr280       O307   2.436       .  S
Zr280       O282   2.438       .  S
Zr280       O283   2.395       .  S
Zr280       O284   2.373       .  S
O281        H318   0.990       .  S
O282        H313   0.990       .  S
O282        H327   0.990       .  S
O284        H310   0.965       .  S
O285       Zr295   2.383       .  S
O286       Zr295   2.372       .  S
O286        H311   0.967       .  S
C287       C1657   1.486       .  S
C288       C1644   1.492   1_545  S
C289       C1705   1.487       .  S
O290        H326   0.990       .  S
O291        C293   1.290       .  A
O292        C293   1.284       .  A
C293       C1585   1.490       .  S
O294       Zr295   2.437       .  S
O294        H323   0.990       .  S
Zr295       O298   2.436       .  S
Zr295       O299   2.438       .  S
Zr295       O300   2.435       .  S
O296        C301   1.283       .  A
O297        H314   0.990       .  S
O297        H329   0.990       .  S
O298        H315   0.990       .  S
O299        H319   0.990       .  S
O299        H328   0.990       .  S
O300        C301   1.284       .  A
C301       C1692   1.487       .  S
O302        H321   0.990       .  S
O302        H325   0.990       .  S
O303        H317   0.990       .  S
O303        H324   0.990       .  S
O304        C308   1.283       .  A
O305        C308   1.284       .  A
O306        H316   0.990       .  S
O307        H320   0.990       .  S
C308       C1620   1.480       .  S
Zr331       O332   2.442       .  S
Zr331       O333   2.470       .  S
Zr331       O334   2.472       .  S
Zr331       O337   2.464       .  S
Zr331       O339   2.385       .  S
Zr331       O340   2.394       .  S
Zr331       O341   2.420       .  S
Zr331       O342   2.400       .  S
O332        H388   0.990       .  S
O332        H396   0.991       .  S
O333        C353   1.290       .  A
O334        C355   1.290       .  A
O335       Zr345   2.429       .  S
O335        C354   1.285       .  A
O336       Zr344   2.415       .  S
O336        C355   1.282       .  A
O337        C354   1.291       .  A
O338       Zr346   2.400       .  S
O338        C353   1.279       .  A
O339       Zr344   2.401       .  S
O339       Zr346   2.380       .  S
O340       Zr345   2.403       .  S
O340       Zr346   2.381       .  S
O340        H375   0.965       .  S
O341       Zr344   2.412       .  S
O341       Zr361   2.402       .  S
O341        H378   0.964       .  S
O342       Zr345   2.395       .  S
O342       Zr361   2.388       .  S
Zr343       O368   2.442       .  S
Zr343       O362   2.434       .  S
Zr343       O370   2.424       .  S
Zr343       O358   2.425       .  S
Zr343       O349   2.398       .  S
Zr343       O350   2.404       .  S
Zr343       O351   2.373       .  S
Zr343       O352   2.377       .  S
Zr344       O363   2.436       .  S
Zr344       O356   2.435       .  S
Zr344       O357   2.449       .  S
Zr344       O350   2.390       .  S
Zr344       O351   2.398       .  S
Zr345       O347   2.436       .  S
Zr345       O369   2.439       .  S
Zr345       O371   2.448       .  S
Zr345       O349   2.387       .  S
Zr345       O352   2.400       .  S
Zr346       O372   2.435       .  S
Zr346       O373   2.435       .  S
Zr346       O348   2.439       .  S
Zr346       O349   2.384       .  S
Zr346       O350   2.386       .  S
O347        H384   0.990       .  S
O348        H379   0.990       .  S
O348        H393   0.990       .  S
O350        H376   0.965       .  S
O351       Zr361   2.379       .  S
O352       Zr361   2.382       .  S
O352        H377   0.967       .  S
C353       C1668   1.493       .  S
C354       C1908   1.488       .  S
C355       C1537   1.489       .  S
O356        H392   0.990       .  S
O357        C359   1.287       .  A
O358        C359   1.284       .  A
C359       C1561   1.488       .  S
O360       Zr361   2.435       .  S
O360        H389   0.990       .  S
Zr361       O364   2.437       .  S
Zr361       O365   2.438       .  S
Zr361       O366   2.431       .  S
O362        C367   1.283       .  A
O363        H380   0.990       .  S
O363        H395   0.990       .  S
O364        H381   0.990       .  S
O365        H385   0.990       .  S
O365        H394   0.990       .  S
O366        C367   1.283       .  A
C367       C1777   1.489       .  S
O368        H387   0.990       .  S
O368        H391   0.990       .  S
O369        H383   0.990       .  S
O369        H390   0.990       .  S
O370        C374   1.283       .  A
O371        C374   1.287       .  A
O372        H382   0.990       .  S
O373        H386   0.990       .  S
C374       C1513   1.487       .  S
Zr397       O398   2.441       .  S
Zr397       O399   2.483       .  S
Zr397       O400   2.482       .  S
Zr397       O403   2.479       .  S
Zr397       O405   2.391       .  S
Zr397       O406   2.394       .  S
Zr397       O407   2.424       .  S
Zr397       O408   2.418       .  S
O398        H454   0.990       .  S
O398        H462   0.991       .  S
O399        C419   1.292       .  A
O400        C421   1.293       .  A
O401       Zr411   2.428       .  S
O401        C420   1.285       .  A
O402       Zr410   2.433       .  S
O402        C421   1.286       .  A
O403        C420   1.293       .  A
O404       Zr412   2.384       .  S
O404        C419   1.275       .  A
O405       Zr410   2.401       .  S
O405       Zr412   2.386       .  S
O406       Zr411   2.402       .  S
O406       Zr412   2.378       .  S
O406        H441   0.966       .  S
O407       Zr410   2.412       .  S
O407       Zr427   2.395       .  S
O407        H444   0.965       .  S
O408       Zr411   2.403       .  S
O408       Zr427   2.402       .  S
Zr409       O434   2.439       .  S
Zr409       O428   2.417       .  S
Zr409       O436   2.417       .  S
Zr409       O424   2.426       .  S
Zr409       O415   2.392       .  S
Zr409       O416   2.394       .  S
Zr409       O417   2.373       .  S
Zr409       O418   2.379       .  S
Zr410       O429   2.437       .  S
Zr410       O422   2.437       .  S
Zr410       O423   2.456       .  S
Zr410       O416   2.397       .  S
Zr410       O417   2.394       .  S
Zr411       O413   2.434       .  S
Zr411       O435   2.438       .  S
Zr411       O437   2.466       .  S
Zr411       O415   2.382       .  S
Zr411       O418   2.396       .  S
Zr412       O438   2.436       .  S
Zr412       O439   2.435       .  S
Zr412       O414   2.438       .  S
Zr412       O415   2.384       .  S
Zr412       O416   2.375       .  S
O413        H450   0.990       .  S
O414        H445   0.990       .  S
O414        H459   0.990       .  S
O416        H442   0.965       .  S
O417       Zr427   2.377       .  S
O418       Zr427   2.373       .  S
O418        H443   0.966       .  S
C419       C1500   1.493       .  S
C420       C2041   1.498       .  S
C421       C1633   1.497       .  S
O422        H458   0.990       .  S
O423        C425   1.289       .  A
O424        C425   1.284       .  A
C425       C1740   1.477       .  S
O426       Zr427   2.436       .  S
O426        H455   0.990       .  S
Zr427       O430   2.436       .  S
Zr427       O431   2.437       .  S
Zr427       O432   2.448       .  S
O428        C433   1.282       .  A
O429        H446   0.990       .  S
O429        H461   0.990       .  S
O430        H447   0.990       .  S
O431        H451   0.990       .  S
O431        H460   0.990       .  S
O432        C433   1.286       .  A
C433       C1572   1.487       .  S
O434        H453   0.990       .  S
O434        H457   0.990       .  S
O435        H449   0.990       .  S
O435        H456   0.990       .  S
O436        C440   1.283       .  A
O437        C440   1.290       .  A
O438        H448   0.990       .  S
O439        H452   0.990       .  S
C440       C1476   1.491       .  S
Zr463       O464   2.441       .  S
Zr463       O465   2.479       .  S
Zr463       O466   2.480       .  S
Zr463       O469   2.482       .  S
Zr463       O471   2.392       .  S
Zr463       O472   2.396       .  S
Zr463       O473   2.423       .  S
Zr463       O474   2.405       .  S
O464        H520   0.990       .  S
O464        H528   0.991       .  S
O465        C485   1.291       .  A
O466        C487   1.292       .  A
O467       Zr477   2.422       .  S
O467        C486   1.284       .  A
O468       Zr476   2.420       .  S
O468        C487   1.284   1_554  A
O469        C486   1.294       .  A
O470       Zr478   2.394       .  S
O470        C485   1.277       .  A
O471       Zr476   2.400   1_556  S
O471       Zr478   2.383       .  S
O472       Zr477   2.399       .  S
O472       Zr478   2.385       .  S
O472        H507   0.966       .  S
O473       Zr476   2.406   1_556  S
O473       Zr493   2.403       .  S
O473        H510   0.966       .  S
O474       Zr477   2.394       .  S
O474       Zr493   2.392       .  S
Zr475       O500   2.441       .  S
Zr475       O494   2.429   1_556  S
Zr475       O502   2.422       .  S
Zr475       O490   2.428   1_556  S
Zr475       O481   2.399       .  S
Zr475       O482   2.400       .  S
Zr475       O483   2.376   1_556  S
Zr475       O484   2.375       .  S
Zr476       O495   2.436       .  S
Zr476       O488   2.435       .  S
Zr476       O489   2.444       .  S
Zr476       O482   2.393   1_554  S
Zr476       O483   2.391       .  S
Zr477       O479   2.437       .  S
Zr477       O501   2.435       .  S
Zr477       O503   2.447       .  S
Zr477       O481   2.389       .  S
Zr477       O484   2.393       .  S
Zr478       O504   2.435       .  S
Zr478       O505   2.436       .  S
Zr478       O480   2.440       .  S
Zr478       O481   2.388       .  S
Zr478       O482   2.386       .  S
O479        H516   0.989       .  S
O480        H511   0.990       .  S
O480        H525   0.990       .  S
O482        H508   0.967       .  S
O483       Zr493   2.371   1_554  S
O484       Zr493   2.374       .  S
O484        H509   0.965       .  S
C485       C1489   1.488       .  S
C486       C1452   1.498       .  S
C487       C1393   1.498       .  S
O488        H524   0.990       .  S
O489        C491   1.287       .  A
O490        C491   1.284       .  A
C491       C2017   1.483       .  S
O492       Zr493   2.434       .  S
O492        H521   0.990       .  S
Zr493       O496   2.436   1_556  S
Zr493       O497   2.437       .  S
Zr493       O498   2.434   1_556  S
O494        C499   1.284       .  A
O495        H512   0.990       .  S
O495        H527   0.990       .  S
O496        H513   0.990       .  S
O497        H517   0.990       .  S
O497        H526   0.990       .  S
O498        C499   1.284       .  A
C499       C1417   1.486       .  S
O500        H519   0.990   1_556  S
O500        H523   0.990   1_556  S
O501        H515   0.990       .  S
O501        H522   0.990       .  S
O502        C506   1.284       .  A
O503        C506   1.287       .  A
O504        H514   0.990       .  S
O505        H518   0.990       .  S
C506       C1860   1.480       .  S
Zr529       O530   2.442       .  S
Zr529       O531   2.473       .  S
Zr529       O532   2.468       .  S
Zr529       O535   2.469       .  S
Zr529       O537   2.390       .  S
Zr529       O538   2.390       .  S
Zr529       O539   2.426       .  S
Zr529       O540   2.403       .  S
O530        H586   0.990       .  S
O530        H594   0.990       .  S
O531        C551   1.289       .  A
O532        C553   1.289       .  A
O533       Zr543   2.425       .  S
O533        C552   1.284       .  A
O534       Zr542   2.411       .  S
O534        C553   1.281       .  A
O535        C552   1.291       .  A
O536       Zr544   2.400       .  S
O536        C551   1.277       .  A
O537       Zr542   2.405       .  S
O537       Zr544   2.378       .  S
O538       Zr543   2.401       .  S
O538       Zr544   2.380       .  S
O538        H573   0.967       .  S
O539       Zr542   2.408       .  S
O539       Zr559   2.409       .  S
O539        H576   0.966       .  S
O540       Zr543   2.395       .  S
O540       Zr559   2.394       .  S
Zr541       O566   2.442       .  S
Zr541       O560   2.431       .  S
Zr541       O568   2.424       .  S
Zr541       O556   2.424       .  S
Zr541       O547   2.396       .  S
Zr541       O548   2.404       .  S
Zr541       O549   2.375       .  S
Zr541       O550   2.377       .  S
Zr542       O561   2.436       .  S
Zr542       O554   2.436       .  S
Zr542       O555   2.453       .  S
Zr542       O548   2.391       .  S
Zr542       O549   2.392       .  S
Zr543       O545   2.437       .  S
Zr543       O567   2.437       .  S
Zr543       O569   2.448       .  S
Zr543       O547   2.390       .  S
Zr543       O550   2.395       .  S
Zr544       O570   2.435       .  S
Zr544       O571   2.434       .  S
Zr544       O546   2.440       .  S
Zr544       O547   2.385       .  S
Zr544       O548   2.388       .  S
O545        H582   0.990       .  S
O546        H577   0.990       .  S
O546        H591   0.990       .  S
O548        H574   0.966       .  S
O549       Zr559   2.380       .  S
O550       Zr559   2.384       .  S
O550        H575   0.967       .  S
C551       C1332   1.484       .  S
C552       C1380   1.495       .  S
C553       C1297   1.486       .  S
O554        H590   0.990       .  S
O555        C557   1.288       .  A
O556        C557   1.282       .  A
C557       C1681   1.485       .  S
O558       Zr559   2.435       .  S
O558        H587   0.990       .  S
Zr559       O562   2.436       .  S
Zr559       O563   2.438       .  S
Zr559       O564   2.435       .  S
O560        C565   1.283       .  A
O561        H578   0.990       .  S
O561        H593   0.990       .  S
O562        H579   0.990       .  S
O563        H583   0.990       .  S
O563        H592   0.990       .  S
O564        C565   1.283       .  A
C565       C1356   1.483       .  S
O566        H585   0.990       .  S
O566        H589   0.990       .  S
O567        H581   0.990       .  S
O567        H588   0.990       .  S
O568        C572   1.283       .  A
O569        C572   1.286       .  A
O570        H580   0.990       .  S
O571        H584   0.990       .  S
C572       C1284   1.487       .  S
Zr595       O596   2.442       .  S
Zr595       O597   2.477       .  S
Zr595       O598   2.471       .  S
Zr595       O601   2.469       .  S
Zr595       O603   2.392       .  S
Zr595       O604   2.392       .  S
Zr595       O605   2.421       .  S
Zr595       O606   2.416       .  S
O596        H652   0.990       .  S
O596        H660   0.991       .  S
O597        C617   1.291       .  A
O598        C619   1.291       .  A
O599       Zr609   2.406       .  S
O599        C618   1.281       .  A
O600       Zr608   2.444       .  S
O600        C619   1.288       .  A
O601        C618   1.291       .  A
O602       Zr610   2.390       .  S
O602        C617   1.276       .  A
O603       Zr608   2.405       .  S
O603       Zr610   2.385       .  S
O604       Zr609   2.399       .  S
O604       Zr610   2.378       .  S
O604        H639   0.966       .  S
O605       Zr608   2.411       .  S
O605       Zr625   2.388       .  S
O605        H642   0.965       .  S
O606       Zr609   2.400       .  S
O606       Zr625   2.401       .  S
Zr607       O632   2.441       .  S
Zr607       O626   2.411       .  S
Zr607       O634   2.415   1_554  S
Zr607       O622   2.416       .  S
Zr607       O613   2.392       .  S
Zr607       O614   2.399       .  S
Zr607       O615   2.375       .  S
Zr607       O616   2.373       .  S
Zr608       O627   2.437       .  S
Zr608       O620   2.434       .  S
Zr608       O621   2.466       .  S
Zr608       O614   2.402       .  S
Zr608       O615   2.399       .  S
Zr609       O611   2.435   1_554  S
Zr609       O633   2.438       .  S
Zr609       O635   2.445   1_554  S
Zr609       O613   2.385       .  S
Zr609       O616   2.386       .  S
Zr610       O636   2.436       .  S
Zr610       O637   2.435       .  S
Zr610       O612   2.438       .  S
Zr610       O613   2.387       .  S
Zr610       O614   2.385       .  S
O611        H648   0.989       .  S
O612        H643   0.990       .  S
O612        H657   0.990       .  S
O614        H640   0.964       .  S
O615       Zr625   2.378       .  S
O616       Zr625   2.376       .  S
O616        H641   0.966   1_554  S
C617       C1321   1.485       .  S
C618       C1716   1.490       .  S
C619       C1969   1.497       .  S
O620        H656   0.990       .  S
O621        C623   1.290       .  A
O622        C623   1.281       .  A
C623       C1236   1.485       .  S
O624       Zr625   2.438       .  S
O624        H653   0.990       .  S
Zr625       O628   2.437       .  S
Zr625       O629   2.440   1_554  S
Zr625       O630   2.426       .  S
O626        C631   1.279   1_554  A
O627        H644   0.990       .  S
O627        H659   0.990       .  S
O628        H645   0.990       .  S
O629        H649   0.990       .  S
O629        H658   0.990       .  S
O630        C631   1.282   1_554  A
C631       C2089   1.477       .  S
O632        H651   0.990       .  S
O632        H655   0.991       .  S
O633        H647   0.990       .  S
O633        H654   0.990       .  S
O634        C638   1.282       .  A
O635        C638   1.286       .  A
O636        H646   0.990       .  S
O637        H650   0.990       .  S
C638       C1260   1.480       .  S
Zr661       O662   2.441       .  S
Zr661       O663   2.487       .  S
Zr661       O664   2.478       .  S
Zr661       O667   2.465       .  S
Zr661       O669   2.389       .  S
Zr661       O670   2.393       .  S
Zr661       O671   2.425       .  S
Zr661       O672   2.428       .  S
O662        H718   0.990       .  S
O662        H726   0.990       .  S
O663        C683   1.293       .  A
O664        C685   1.292       .  A
O665       Zr675   2.431       .  S
O665        C684   1.285       .  A
O666       Zr674   2.443       .  S
O666        C685   1.287       .  A
O667        C684   1.291       .  A
O668       Zr676   2.392       .  S
O668        C683   1.277       .  A
O669       Zr674   2.397       .  S
O669       Zr676   2.389       .  S
O670       Zr675   2.401       .  S
O670       Zr676   2.375       .  S
O670        H705   0.966       .  S
O671       Zr674   2.411       .  S
O671       Zr691   2.385       .  S
O671        H708   0.962       .  S
O672       Zr675   2.402       .  S
O672       Zr691   2.411       .  S
Zr673       O698   2.439       .  S
Zr673       O692   2.419       .  S
Zr673       O700   2.413       .  S
Zr673       O688   2.426       .  S
Zr673       O679   2.397       .  S
Zr673       O680   2.394       .  S
Zr673       O681   2.375       .  S
Zr673       O682   2.379       .  S
Zr674       O693   2.438       .  S
Zr674       O686   2.435       .  S
Zr674       O687   2.452       .  S
Zr674       O680   2.397       .  S
Zr674       O681   2.399       .  S
Zr675       O677   2.437       .  S
Zr675       O699   2.438       .  S
Zr675       O701   2.459       .  S
Zr675       O679   2.387       .  S
Zr675       O682   2.389       .  S
Zr676       O702   2.436       .  S
Zr676       O703   2.436       .  S
Zr676       O678   2.441       .  S
Zr676       O679   2.382       .  S
Zr676       O680   2.390       .  S
O677        H714   0.990       .  S
O678        H709   0.990       .  S
O678        H723   0.989       .  S
O680        H706   0.965       .  S
O681       Zr691   2.373       .  S
O682       Zr691   2.365       .  S
O682        H707   0.966       .  S
C683       C1201   1.499       .  S
C684       C1188   1.495       .  S
C685       C1764   1.497       .  S
O686        H722   0.990       .  S
O687        C689   1.288       .  A
O688        C689   1.284       .  A
C689       C1956   1.483       .  S
O690       Zr691   2.435       .  S
O690        H719   0.990       .  S
Zr691       O694   2.437       .  S
Zr691       O695   2.437       .  S
Zr691       O696   2.435       .  S
O692        C697   1.282       .  A
O693        H710   0.990       .  S
O693        H725   0.990       .  S
O694        H711   0.990       .  S
O695        H715   0.990       .  S
O695        H724   0.989       .  S
O696        C697   1.284       .  A
C697       C1884   1.485       .  S
O698        H717   0.990       .  S
O698        H721   0.990       .  S
O699        H713   0.990       .  S
O699        H720   0.990       .  S
O700        C704   1.282       .  A
O701        C704   1.289       .  A
O702        H712   0.990       .  S
O703        H716   0.990       .  S
C704       C1428   1.480       .  S
Zr727       O728   2.441       .  S
Zr727       O729   2.484       .  S
Zr727       O730   2.482       .  S
Zr727       O733   2.478       .  S
Zr727       O735   2.388       .  S
Zr727       O736   2.397       .  S
Zr727       O737   2.428       .  S
Zr727       O738   2.407       .  S
O728        H784   0.990       .  S
O728        H792   0.991       .  S
O729        C749   1.293       .  A
O730        C751   1.292       .  A
O731       Zr741   2.414       .  S
O731        C750   1.282       .  A
O732       Zr740   2.423       .  S
O732        C751   1.284       .  A
O733        C750   1.294       .  A
O734       Zr742   2.402       .  S
O734        C749   1.279       .  A
O735       Zr740   2.402       .  S
O735       Zr742   2.377       .  S
O736       Zr741   2.401       .  S
O736       Zr742   2.388       .  S
O736        H771   0.965       .  S
O737       Zr740   2.410       .  S
O737       Zr757   2.410       .  S
O737        H774   0.965       .  S
O738       Zr741   2.392       .  S
O738       Zr757   2.392       .  S
Zr739       O764   2.439       .  S
Zr739       O758   2.414       .  S
Zr739       O766   2.415       .  S
Zr739       O754   2.409       .  S
Zr739       O745   2.394       .  S
Zr739       O746   2.394       .  S
Zr739       O747   2.377       .  S
Zr739       O748   2.372       .  S
Zr740       O759   2.436       .  S
Zr740       O752   2.435       .  S
Zr740       O753   2.466       .  S
Zr740       O746   2.386       .  S
Zr740       O747   2.386       .  S
Zr741       O743   2.435       .  S
Zr741       O765   2.437       .  S
Zr741       O767   2.447       .  S
Zr741       O745   2.382       .  S
Zr741       O748   2.389       .  S
Zr742       O768   2.437       .  S
Zr742       O769   2.436       .  S
Zr742       O744   2.438       .  S
Zr742       O745   2.394       .  S
Zr742       O746   2.385       .  S
O743        H780   0.990       .  S
O744        H775   0.990       .  S
O744        H789   0.990       .  S
O746        H772   0.965       .  S
O747       Zr757   2.373       .  S
O748       Zr757   2.384       .  S
O748        H773   0.966       .  S
C749       C1212   1.492       .  S
C750       C1308   1.491       .  S
C751       C1441   1.496       .  S
O752        H788   0.990       .  S
O753        C755   1.291       .  A
O754        C755   1.281       .  A
C755       C1164   1.485       .  S
O756       Zr757   2.437       .  S
O756        H785   0.990       .  S
Zr757       O760   2.435       .  S
Zr757       O761   2.439       .  S
Zr757       O762   2.452       .  S
O758        C763   1.282       .  A
O759        H776   0.990       .  S
O759        H791   0.990       .  S
O760        H777   0.990       .  S
O761        H781   0.990       .  S
O761        H790   0.989       .  S
O762        C763   1.287       .  A
C763       C1249   1.489       .  S
O764        H783   0.990       .  S
O764        H787   0.990       .  S
O765        H779   0.990       .  S
O765        H786   0.990       .  S
O766        C770   1.282       .  A
O767        C770   1.286       .  A
O768        H778   0.990       .  S
O769        H782   0.990       .  S
C770       C2065   1.488       .  S
Zr793       O794   2.441       .  S
Zr793       O795   2.468       .  S
Zr793       O796   2.478       .  S
Zr793       O799   2.469       .  S
Zr793       O801   2.385       .  S
Zr793       O802   2.398       .  S
Zr793       O803   2.419       .  S
Zr793       O804   2.397       .  S
O794        H850   0.990       .  S
O794        H858   0.990       .  S
O795        C815   1.289       .  A
O796        C817   1.292       .  A
O797       Zr807   2.430       .  S
O797        C816   1.285       .  A
O798       Zr806   2.436       .  S
O798        C817   1.286       .  A
O799        C816   1.292       .  A
O800       Zr808   2.385       .  S
O800        C815   1.276       .  A
O801       Zr806   2.396       .  S
O801       Zr808   2.386       .  S
O802       Zr807   2.394       .  S
O802       Zr808   2.382       .  S
O802        H837   0.966       .  S
O803       Zr806   2.404       .  S
O803       Zr823   2.396       .  S
O803        H840   0.965       .  S
O804       Zr807   2.392       .  S
O804       Zr823   2.377       .  S
Zr805       O830   2.442       .  S
Zr805       O824   2.439       .  S
Zr805       O832   2.428       .  S
Zr805       O820   2.427       .  S
Zr805       O811   2.400       .  S
Zr805       O812   2.403       .  S
Zr805       O813   2.375       .  S
Zr805       O814   2.378       .  S
Zr806       O825   2.436       .  S
Zr806       O818   2.434       .  S
Zr806       O819   2.448       .  S
Zr806       O812   2.394       .  S
Zr806       O813   2.397       .  S
Zr807       O809   2.435       .  S
Zr807       O831   2.438       .  S
Zr807       O833   2.449       .  S
Zr807       O811   2.384       .  S
Zr807       O814   2.401       .  S
Zr808       O834   2.437       .  S
Zr808       O835   2.438       .  S
Zr808       O810   2.437       .  S
Zr808       O811   2.386       .  S
Zr808       O812   2.382       .  S
O809        H846   0.990       .  S
O810        H841   0.990       .  S
O810        H855   0.990       .  S
O812        H838   0.965       .  S
O813       Zr823   2.377       .  S
O814       Zr823   2.381       .  S
O814        H839   0.967       .  S
C815       C1140   1.485       .  S
C816       C1548   1.486       .  S
C817       C2196   1.494       .  S
O818        H854   0.990       .  S
O819        C821   1.288       .  A
O820        C821   1.285       .  A
C821       C1116   1.480       .  S
O822       Zr823   2.435       .  S
O822        H851   0.990       .  S
Zr823       O826   2.435       .  S
Zr823       O827   2.437       .  S
Zr823       O828   2.414       .  S
O824        C829   1.286       .  A
O825        H842   0.990       .  S
O825        H857   0.990       .  S
O826        H843   0.990       .  S
O827        H847   0.990       .  S
O827        H856   0.990       .  S
O828        C829   1.280       .  A
C829       C1609   1.484       .  S
O830        H849   0.990       .  S
O830        H853   0.990       .  S
O831        H845   0.990       .  S
O831        H852   0.990       .  S
O832        C836   1.283       .  A
O833        C836   1.286       .  A
O834        H844   0.990       .  S
O835        H848   0.990       .  S
C836       C1273   1.482       .  S
Zr859       O860   2.442       .  S
Zr859       O861   2.466       .  S
Zr859       O862   2.461       .  S
Zr859       O865   2.462       .  S
Zr859       O867   2.386       .  S
Zr859       O868   2.386       .  S
Zr859       O869   2.422       .  S
Zr859       O870   2.414       .  S
O860        H916   0.990       .  S
O860        H924   0.990       .  S
O861        C881   1.289       .  A
O862        C883   1.289       .  A
O863       Zr873   2.424       .  S
O863        C882   1.283       .  A
O864       Zr872   2.451       .  S
O864        C883   1.288       .  A
O865        C882   1.290       .  A
O866       Zr874   2.387       .  S
O866        C881   1.276       .  A
O867       Zr872   2.404       .  S
O867       Zr874   2.387       .  S
O868       Zr873   2.396       .  S
O868       Zr874   2.377       .  S
O868        H903   0.967       .  S
O869       Zr872   2.410       .  S
O869       Zr889   2.395       .  S
O869        H906   0.964       .  S
O870       Zr873   2.395       .  S
O870       Zr889   2.405       .  S
Zr871       O896   2.441       .  S
Zr871       O890   2.427       .  S
Zr871       O898   2.435   1_554  S
Zr871       O886   2.433       .  S
Zr871       O877   2.397       .  S
Zr871       O878   2.405       .  S
Zr871       O879   2.379       .  S
Zr871       O880   2.380       .  S
Zr872       O891   2.437       .  S
Zr872       O884   2.434       .  S
Zr872       O885   2.465       .  S
Zr872       O878   2.405       .  S
Zr872       O879   2.405       .  S
Zr873       O875   2.435   1_554  S
Zr873       O897   2.440       .  S
Zr873       O899   2.434   1_554  S
Zr873       O877   2.388       .  S
Zr873       O880   2.402       .  S
Zr874       O900   2.436       .  S
Zr874       O901   2.436       .  S
Zr874       O876   2.439       .  S
Zr874       O877   2.385       .  S
Zr874       O878   2.375       .  S
O875        H912   0.990       .  S
O876        H907   0.990       .  S
O876        H921   0.990       .  S
O878        H904   0.964       .  S
O879       Zr889   2.383       .  S
O880       Zr889   2.380       .  S
O880        H905   0.966   1_554  S
C881       C1129   1.483       .  S
C882       C1092   1.488       .  S
C883       C1177   1.498       .  S
O884        H920   0.990       .  S
O885        C887   1.290       .  A
O886        C887   1.284       .  A
C887       C1225   1.494       .  S
O888       Zr889   2.440       .  S
O888        H917   0.990       .  S
Zr889       O892   2.436       .  S
Zr889       O893   2.441   1_554  S
Zr889       O894   2.441       .  S
O890        C895   1.282       .  A
O891        H908   0.990       .  S
O891        H923   0.990       .  S
O892        H909   0.990       .  S
O893        H913   0.989       .  S
O893        H922   0.990   1_556  S
O894        C895   1.285       .  A
C895       C1153   1.493   1_554  S
O896        H915   0.990       .  S
O896        H919   0.990       .  S
O897        H911   0.990       .  S
O897        H918   0.990       .  S
O898        C902   1.285       .  A
O899        C902   1.285       .  A
O900        H910   0.990       .  S
O901        H914   0.990       .  S
C902       C2172   1.482       .  S
Zr925       O926   2.440       .  S
Zr925       O927   2.468       .  S
Zr925       O928   2.480       .  S
Zr925       O931   2.475       .  S
Zr925       O933   2.390       .  S
Zr925       O934   2.399       .  S
Zr925       O935   2.421       .  S
Zr925       O936   2.401       .  S
O926        H982   0.990       .  S
O926        H990   0.990       .  S
O927        C947   1.289       .  A
O928        C949   1.291       .  A
O929       Zr939   2.425       .  S
O929        C948   1.285       .  A
O930       Zr938   2.414       .  S
O930        C949   1.282       .  A
O931        C948   1.293       .  A
O932       Zr940   2.403       .  S
O932        C947   1.279       .  A
O933       Zr938   2.400       .  S
O933       Zr940   2.386       .  S
O934       Zr939   2.397       .  S
O934       Zr940   2.383       .  S
O934        H969   0.967       .  S
O935       Zr938   2.404       .  S
O935       Zr955   2.404       .  S
O935        H972   0.966       .  S
O936       Zr939   2.389       .  S
O936       Zr955   2.387       .  S
Zr937       O962   2.441       .  S
Zr937       O956   2.436       .  S
Zr937       O964   2.421       .  S
Zr937       O952   2.426       .  S
Zr937       O943   2.404       .  S
Zr937       O944   2.401       .  S
Zr937       O945   2.374       .  S
Zr937       O946   2.377       .  S
Zr938       O957   2.436       .  S
Zr938       O950   2.435       .  S
Zr938       O951   2.436       .  S
Zr938       O944   2.387       .  S
Zr938       O945   2.391       .  S
Zr939       O941   2.436       .  S
Zr939       O963   2.436       .  S
Zr939       O965   2.448       .  S
Zr939       O943   2.384       .  S
Zr939       O946   2.393       .  S
Zr940       O966   2.437       .  S
Zr940       O967   2.438       .  S
Zr940       O942   2.437       .  S
Zr940       O943   2.388       .  S
Zr940       O944   2.389       .  S
O941        H978   0.990       .  S
O942        H973   0.990   1_455  S
O942        H987   0.990       .  S
O944        H970   0.967       .  S
O945       Zr955   2.375       .  S
O946       Zr955   2.378       .  S
O946        H971   0.966       .  S
C947       C1068   1.490       .  S
C948       C1404   1.491       .  S
C949       C1369   1.489       .  S
O950        H986   0.989       .  S
O951        C953   1.285       .  A
O952        C953   1.285       .  A
C953       C1801   1.483       .  S
O954       Zr955   2.435       .  S
O954        H983   0.990       .  S
Zr955       O958   2.435       .  S
Zr955       O959   2.438       .  S
Zr955       O960   2.438       .  S
O956        C961   1.286       .  A
O957        H974   0.990       .  S
O957        H989   0.990       .  S
O958        H975   0.990       .  S
O959        H979   0.990       .  S
O959        H988   0.990       .  S
O960        C961   1.285       .  A
C961       C1465   1.493       .  S
O962        H981   0.990       .  S
O962        H985   0.990       .  S
O963        H977   0.990       .  S
O963        H984   0.990       .  S
O964        C968   1.283       .  A
O965        C968   1.287       .  A
O966        H976   0.991       .  S
O967        H980   0.991       .  S
C968       C1524   1.481       .  S
Zr991       O992   2.441       .  S
Zr991       O993   2.465       .  S
Zr991       O994   2.471       .  S
Zr991       O997   2.471       .  S
Zr991       O999   2.392       .  S
Zr991      O1000   2.391       .  S
Zr991      O1001   2.418       .  S
Zr991      O1002   2.413       .  S
O992       H1048   0.990       .  S
O992       H1056   0.990       .  S
O993       C1013   1.290       .  A
O994       C1015   1.291       .  A
O995      Zr1005   2.415       .  S
O995       C1014   1.283       .  A
O996      Zr1004   2.420       .  S
O996       C1015   1.283       .  A
O997       C1014   1.292       .  A
O998      Zr1006   2.397       .  S
O998       C1013   1.278       .  A
O999      Zr1004   2.401       .  S
O999      Zr1006   2.380       .  S
O1000     Zr1005   2.395       .  S
O1000     Zr1006   2.373       .  S
O1000      H1035   0.965       .  S
O1001     Zr1004   2.409       .  S
O1001     Zr1021   2.399       .  S
O1001      H1038   0.965       .  S
O1002     Zr1005   2.397       .  S
O1002     Zr1021   2.400       .  S
Zr1003     O1028   2.441       .  S
Zr1003     O1022   2.431       .  S
Zr1003     O1030   2.421       .  S
Zr1003     O1018   2.428       .  S
Zr1003     O1009   2.399       .  S
Zr1003     O1010   2.406       .  S
Zr1003     O1011   2.379       .  S
Zr1003     O1012   2.378       .  S
Zr1004     O1023   2.436       .  S
Zr1004     O1016   2.435       .  S
Zr1004     O1017   2.453       .  S
Zr1004     O1010   2.396       .  S
Zr1004     O1011   2.399       .  S
Zr1005     O1007   2.434       .  S
Zr1005     O1029   2.438       .  S
Zr1005     O1031   2.441       .  S
Zr1005     O1009   2.383       .  S
Zr1005     O1012   2.393       .  S
Zr1006     O1032   2.436       .  S
Zr1006     O1033   2.435       .  S
Zr1006     O1008   2.436       .  S
Zr1006     O1009   2.387       .  S
Zr1006     O1010   2.383       .  S
O1007      H1044   0.990       .  S
O1008      H1039   0.990       .  S
O1008      H1053   0.990       .  S
O1010      H1036   0.964       .  S
O1011     Zr1021   2.386       .  S
O1012     Zr1021   2.376       .  S
O1012      H1037   0.965       .  S
C1013      C1057   1.489       .  S
C1014      C1836   1.490       .  S
C1015      C1081   1.489       .  S
O1016      H1052   0.990       .  S
O1017      C1019   1.287       .  A
O1018      C1019   1.282       .  A
C1019      C1596   1.481       .  S
O1020     Zr1021   2.436       .  S
O1020      H1049   0.990       .  S
Zr1021     O1024   2.439       .  S
Zr1021     O1025   2.439       .  S
Zr1021     O1026   2.434       .  S
O1022      C1027   1.283       .  A
O1023      H1040   0.990       .  S
O1023      H1055   0.990       .  S
O1024      H1041   0.990       .  S
O1025      H1045   0.990       .  S
O1025      H1054   0.989       .  S
O1026      C1027   1.284       .  A
C1027      C1105   1.490       .  S
O1028      H1047   0.990       .  S
O1028      H1051   0.991       .  S
O1029      H1043   0.990       .  S
O1029      H1050   0.990       .  S
O1030      C1034   1.283       .  A
O1031      C1034   1.286       .  A
O1032      H1042   0.990       .  S
O1033      H1046   0.990       .  S
C1034      C1345   1.487       .  S
C1057      C1058   1.404       .  A
C1057      C1062   1.409       .  A
C1058      C1059   1.405       .  A
C1058      H1071   1.083       .  S
C1059      C1060   1.411       .  A
C1059      H1072   1.083       .  S
C1060      C1061   1.406       .  A
C1060      C1063   1.498   1_556  S
C1061      C1062   1.394       .  A
C1061      H1073   1.078   1_655  S
C1062      H1074   1.083       .  S
C1063      C1064   1.357   1_655  D
C1063      H1075   1.081       .  S
C1064      C1065   1.498       .  S
C1064      H1076   1.081       .  S
C1065      C1066   1.410       .  A
C1065      C1070   1.407       .  A
C1066      C1067   1.404       .  A
C1066      H1077   1.083       .  S
C1067      C1068   1.404       .  A
C1067      H1078   1.083       .  S
C1068      C1069   1.408       .  A
C1069      C1070   1.397       .  A
C1069      H1079   1.083       .  S
C1070      H1080   1.078   1_455  S
C1081      C1082   1.407       .  A
C1081      C1086   1.407       .  A
C1082      C1083   1.399   1_556  A
C1082      H1095   1.083       .  S
C1083      C1084   1.404   1_554  A
C1083      H1096   1.083       .  S
C1084      C1085   1.410       .  A
C1084      C1087   1.494   1_556  S
C1085      C1086   1.406       .  A
C1085      H1097   1.081       .  S
C1086      H1098   1.083       .  S
C1087      C1088   1.349       .  D
C1087      H1099   1.087       .  S
C1088      C1089   1.493       .  S
C1088      H1100   1.085       .  S
C1089      C1090   1.405       .  A
C1089      C1094   1.407       .  A
C1090      C1091   1.404       .  A
C1090      H1101   1.083       .  S
C1091      C1092   1.406       .  A
C1091      H1102   1.083       .  S
C1092      C1093   1.407       .  A
C1093      C1094   1.401       .  A
C1093      H1103   1.083       .  S
C1094      H1104   1.082       .  S
C1105      C1106   1.408       .  A
C1105      C1110   1.408       .  A
C1106      C1107   1.401       .  A
C1106      H1119   1.083       .  S
C1107      C1108   1.403       .  A
C1107      H1120   1.083       .  S
C1108      C1109   1.408       .  A
C1108      C1111   1.491       .  S
C1109      C1110   1.399       .  A
C1109      H1121   1.082       .  S
C1110      H1122   1.083       .  S
C1111      C1112   1.349       .  D
C1111      H1123   1.084       .  S
C1112      C1113   1.491       .  S
C1112      H1124   1.085       .  S
C1113      C1114   1.404       .  A
C1113      C1118   1.410       .  A
C1114      C1115   1.396       .  A
C1114      H1125   1.083       .  S
C1115      C1116   1.403       .  A
C1115      H1126   1.083       .  S
C1116      C1117   1.406       .  A
C1117      C1118   1.404       .  A
C1117      H1127   1.083       .  S
C1118      H1128   1.081       .  S
C1129      C1130   1.404       .  A
C1129      C1134   1.408       .  A
C1130      C1131   1.403       .  A
C1130      H1143   1.083       .  S
C1131      C1132   1.407       .  A
C1131      H1144   1.083       .  S
C1132      C1133   1.404       .  A
C1132      C1135   1.487       .  S
C1133      C1134   1.393       .  A
C1133      H1145   1.081       .  S
C1134      H1146   1.083       .  S
C1135      C1136   1.353       .  D
C1135      H1147   1.081       .  S
C1136      C1137   1.492       .  S
C1136      H1148   1.085       .  S
C1137      C1138   1.409       .  A
C1137      C1142   1.406       .  A
C1138      C1139   1.402       .  A
C1138      H1149   1.083       .  S
C1139      C1140   1.403       .  A
C1139      H1150   1.083       .  S
C1140      C1141   1.409       .  A
C1141      C1142   1.393       .  A
C1141      H1151   1.083       .  S
C1142      H1152   1.078       .  S
C1153      C1154   1.407       .  A
C1153      C1158   1.409       .  A
C1154      C1155   1.403       .  A
C1154      H1167   1.083       .  S
C1155      C1156   1.407       .  A
C1155      H1168   1.083       .  S
C1156      C1157   1.408       .  A
C1156      C1159   1.496       .  S
C1157      C1158   1.400       .  A
C1157      H1169   1.081       .  S
C1158      H1170   1.083       .  S
C1159      C1160   1.353       .  D
C1159      H1171   1.083       .  S
C1160      C1161   1.498       .  S
C1160      H1172   1.085       .  S
C1161      C1162   1.405       .  A
C1161      C1166   1.412       .  A
C1162      C1163   1.399       .  A
C1162      H1173   1.084       .  S
C1163      C1164   1.407       .  A
C1163      H1174   1.084       .  S
C1164      C1165   1.404       .  A
C1165      C1166   1.404       .  A
C1165      H1175   1.083       .  S
C1166      H1176   1.079       .  S
C1177      C1178   1.408       .  A
C1177      C1182   1.411       .  A
C1178      C1179   1.401       .  A
C1178      H1191   1.083       .  S
C1179      C1180   1.405       .  A
C1179      H1192   1.083       .  S
C1180      C1181   1.409       .  A
C1180      C1183   1.497       .  S
C1181      C1182   1.408       .  A
C1181      H1193   1.082       .  S
C1182      H1194   1.083       .  S
C1183      C1184   1.352       .  D
C1183      H1195   1.086       .  S
C1184      C1185   1.499       .  S
C1184      H1196   1.086       .  S
C1185      C1186   1.408       .  A
C1185      C1190   1.407       .  A
C1186      C1187   1.409       .  A
C1186      H1197   1.083       .  S
C1187      C1188   1.408       .  A
C1187      H1198   1.083       .  S
C1188      C1189   1.408       .  A
C1189      C1190   1.401       .  A
C1189      H1199   1.083       .  S
C1190      H1200   1.082       .  S
C1201      C1202   1.413       .  A
C1201      C1206   1.405       .  A
C1202      C1203   1.396       .  A
C1202      H1215   1.083       .  S
C1203      C1204   1.405       .  A
C1203      H1216   1.079       .  S
C1204      C1205   1.413       .  A
C1204      C1207   1.504       .  S
C1205      C1206   1.410       .  A
C1205      H1217   1.083       .  S
C1206      H1218   1.083       .  S
C1207      C1208   1.359       .  D
C1207      H1219   1.084       .  S
C1208      C1209   1.500       .  S
C1208      H1220   1.082       .  S
C1209      C1210   1.411       .  A
C1209      C1214   1.406       .  A
C1210      C1211   1.407       .  A
C1210      H1221   1.083       .  S
C1211      C1212   1.404       .  A
C1211      H1222   1.083       .  S
C1212      C1213   1.410       .  A
C1213      C1214   1.400       .  A
C1213      H1223   1.083       .  S
C1214      H1224   1.081       .  S
C1225      C1226   1.409       .  A
C1225      C1230   1.408       .  A
C1226      C1227   1.395       .  A
C1226      H1239   1.082       .  S
C1227      C1228   1.406       .  A
C1227      H1240   1.081       .  S
C1228      C1229   1.408       .  A
C1228      C1231   1.499       .  S
C1229      C1230   1.409       .  A
C1229      H1241   1.083       .  S
C1230      H1242   1.083       .  S
C1231      C1232   1.352       .  D
C1231      H1243   1.085       .  S
C1232      C1233   1.491       .  S
C1232      H1244   1.085       .  S
C1233      C1234   1.402       .  A
C1233      C1238   1.410       .  A
C1234      C1235   1.395       .  A
C1234      H1245   1.084       .  S
C1235      C1236   1.406       .  A
C1235      H1246   1.084       .  S
C1236      C1237   1.407       .  A
C1237      C1238   1.409       .  A
C1237      H1247   1.083       .  S
C1238      H1248   1.082       .  S
C1249      C1250   1.408       .  A
C1249      C1254   1.408       .  A
C1250      C1251   1.393       .  A
C1250      H1263   1.083       .  S
C1251      C1252   1.401       .  A
C1251      H1264   1.084       .  S
C1252      C1253   1.410       .  A
C1252      C1255   1.489       .  S
C1253      C1254   1.406       .  A
C1253      H1265   1.081       .  S
C1254      H1266   1.083       .  S
C1255      C1256   1.349       .  D
C1255      H1267   1.084       .  S
C1256      C1257   1.495       .  S
C1256      H1268   1.085       .  S
C1257      C1258   1.407       .  A
C1257      C1262   1.409       .  A
C1258      C1259   1.403       .  A
C1258      H1269   1.083       .  S
C1259      C1260   1.404       .  A
C1259      H1270   1.083       .  S
C1260      C1261   1.404       .  A
C1261      C1262   1.396       .  A
C1261      H1271   1.084       .  S
C1262      H1272   1.080       .  S
C1273      C1274   1.407       .  A
C1273      C1278   1.402       .  A
C1274      C1275   1.407       .  A
C1274      H1287   1.083       .  S
C1275      C1276   1.410       .  A
C1275      H1288   1.081       .  S
C1276      C1277   1.404       .  A
C1276      C1279   1.490   1_655  S
C1277      C1278   1.394       .  A
C1277      H1289   1.084       .  S
C1278      H1290   1.083       .  S
C1279      C1280   1.351       .  D
C1279      H1291   1.086       .  S
C1280      C1281   1.492       .  S
C1280      H1292   1.084   1_455  S
C1281      C1282   1.407       .  A
C1281      C1286   1.405       .  A
C1282      C1283   1.408       .  A
C1282      H1293   1.083       .  S
C1283      C1284   1.408       .  A
C1283      H1294   1.083       .  S
C1284      C1285   1.406       .  A
C1285      C1286   1.391       .  A
C1285      H1295   1.083       .  S
C1286      H1296   1.082       .  S
C1297      C1298   1.406       .  A
C1297      C1302   1.407       .  A
C1298      C1299   1.395       .  A
C1298      H1311   1.083       .  S
C1299      C1300   1.402       .  A
C1299      H1312   1.084       .  S
C1300      C1301   1.410       .  A
C1300      C1303   1.489       .  S
C1301      C1302   1.407       .  A
C1301      H1313   1.082       .  S
C1302      H1314   1.083       .  S
C1303      C1304   1.349       .  D
C1303      H1315   1.086       .  S
C1304      C1305   1.492       .  S
C1304      H1316   1.086       .  S
C1305      C1306   1.405       .  A
C1305      C1310   1.406       .  A
C1306      C1307   1.404       .  A
C1306      H1317   1.083       .  S
C1307      C1308   1.406       .  A
C1307      H1318   1.083       .  S
C1308      C1309   1.411       .  A
C1309      C1310   1.398       .  A
C1309      H1319   1.083       .  S
C1310      H1320   1.082       .  S
C1321      C1322   1.403       .  A
C1321      C1326   1.408       .  A
C1322      C1323   1.408       .  A
C1322      H1335   1.083       .  S
C1323      C1324   1.411       .  A
C1323      H1336   1.083       .  S
C1324      C1325   1.405       .  A
C1324      C1327   1.497       .  S
C1325      C1326   1.394       .  A
C1325      H1337   1.080       .  S
C1326      H1338   1.084       .  S
C1327      C1328   1.356       .  D
C1327      H1339   1.085       .  S
C1328      C1329   1.493       .  S
C1328      H1340   1.083       .  S
C1329      C1330   1.409       .  A
C1329      C1334   1.405       .  A
C1330      C1331   1.405       .  A
C1330      H1341   1.083       .  S
C1331      C1332   1.404       .  A
C1331      H1342   1.083       .  S
C1332      C1333   1.407       .  A
C1333      C1334   1.398       .  A
C1333      H1343   1.083       .  S
C1334      H1344   1.082       .  S
C1345      C1346   1.407       .  A
C1345      C1350   1.407       .  A
C1346      C1347   1.395       .  A
C1346      H1359   1.083       .  S
C1347      C1348   1.407   1_655  A
C1347      H1360   1.081   1_655  S
C1348      C1349   1.406       .  A
C1348      C1351   1.492       .  S
C1349      C1350   1.404   1_455  A
C1349      H1361   1.083       .  S
C1350      H1362   1.083       .  S
C1351      C1352   1.349       .  D
C1351      H1363   1.084       .  S
C1352      C1353   1.492       .  S
C1352      H1364   1.085       .  S
C1353      C1354   1.404       .  A
C1353      C1358   1.411       .  A
C1354      C1355   1.396       .  A
C1354      H1365   1.084       .  S
C1355      C1356   1.404       .  A
C1355      H1366   1.083       .  S
C1356      C1357   1.406       .  A
C1357      C1358   1.404       .  A
C1357      H1367   1.083       .  S
C1358      H1368   1.080       .  S
C1369      C1370   1.406       .  A
C1369      C1374   1.409       .  A
C1370      C1371   1.395       .  A
C1370      H1383   1.083       .  S
C1371      C1372   1.402       .  A
C1371      H1384   1.084       .  S
C1372      C1373   1.410       .  A
C1372      C1375   1.492       .  S
C1373      C1374   1.411       .  A
C1373      H1385   1.082       .  S
C1374      H1386   1.083       .  S
C1375      C1376   1.352       .  D
C1375      H1387   1.085       .  S
C1376      C1377   1.499       .  S
C1376      H1388   1.086       .  S
C1377      C1378   1.408       .  A
C1377      C1382   1.407       .  A
C1378      C1379   1.408       .  A
C1378      H1389   1.083       .  S
C1379      C1380   1.408       .  A
C1379      H1390   1.083       .  S
C1380      C1381   1.409       .  A
C1381      C1382   1.397       .  A
C1381      H1391   1.083       .  S
C1382      H1392   1.082       .  S
C1393      C1394   1.410   1_556  A
C1393      C1398   1.410       .  A
C1394      C1395   1.398       .  A
C1394      H1407   1.083       .  S
C1395      C1396   1.401       .  A
C1395      H1408   1.084       .  S
C1396      C1397   1.408   1_554  A
C1396      C1399   1.492       .  S
C1397      C1398   1.410       .  A
C1397      H1409   1.083       .  S
C1398      H1410   1.083       .  S
C1399      C1400   1.346       .  D
C1399      H1411   1.087       .  S
C1400      C1401   1.490       .  S
C1400      H1412   1.086   1_554  S
C1401      C1402   1.401       .  A
C1401      C1406   1.408       .  A
C1402      C1403   1.400       .  A
C1402      H1413   1.083       .  S
C1403      C1404   1.408       .  A
C1403      H1414   1.083       .  S
C1404      C1405   1.408       .  A
C1405      C1406   1.407       .  A
C1405      H1415   1.083       .  S
C1406      H1416   1.083       .  S
C1417      C1418   1.407       .  A
C1417      C1422   1.407       .  A
C1418      C1419   1.399       .  A
C1418      H1431   1.083       .  S
C1419      C1420   1.403       .  A
C1419      H1432   1.083       .  S
C1420      C1421   1.409       .  A
C1420      C1423   1.490       .  S
C1421      C1422   1.400       .  A
C1421      H1433   1.081       .  S
C1422      H1434   1.083       .  S
C1423      C1424   1.348       .  D
C1423      H1435   1.085       .  S
C1424      C1425   1.489       .  S
C1424      H1436   1.085       .  S
C1425      C1426   1.402       .  A
C1425      C1430   1.411       .  A
C1426      C1427   1.396       .  A
C1426      H1437   1.084       .  S
C1427      C1428   1.405       .  A
C1427      H1438   1.083       .  S
C1428      C1429   1.404       .  A
C1429      C1430   1.404       .  A
C1429      H1439   1.083       .  S
C1430      H1440   1.081       .  S
C1441      C1442   1.407       .  A
C1441      C1446   1.411       .  A
C1442      C1443   1.397       .  A
C1442      H1455   1.083       .  S
C1443      C1444   1.401       .  A
C1443      H1456   1.084       .  S
C1444      C1445   1.410       .  A
C1444      C1447   1.495       .  S
C1445      C1446   1.414       .  A
C1445      H1457   1.083       .  S
C1446      H1458   1.083       .  S
C1447      C1448   1.353       .  D
C1447      H1459   1.085       .  S
C1448      C1449   1.504       .  S
C1448      H1460   1.086       .  S
C1449      C1450   1.409       .  A
C1449      C1454   1.407       .  A
C1450      C1451   1.410       .  A
C1450      H1461   1.083       .  S
C1451      C1452   1.408       .  A
C1451      H1462   1.083       .  S
C1452      C1453   1.410       .  A
C1453      C1454   1.401       .  A
C1453      H1463   1.083       .  S
C1454      H1464   1.082       .  S
C1465      C1466   1.408       .  A
C1465      C1470   1.406       .  A
C1466      C1467   1.405       .  A
C1466      H1479   1.083       .  S
C1467      C1468   1.407       .  A
C1467      H1480   1.083       .  S
C1468      C1469   1.412       .  A
C1468      C1471   1.503       .  S
C1469      C1470   1.400       .  A
C1469      H1481   1.079       .  S
C1470      H1482   1.083       .  S
C1471      C1472   1.351       .  D
C1471      H1483   1.085       .  S
C1472      C1473   1.495       .  S
C1472      H1484   1.083       .  S
C1473      C1474   1.402       .  A
C1473      C1478   1.412       .  A
C1474      C1475   1.394       .  A
C1474      H1485   1.084       .  S
C1475      C1476   1.406       .  A
C1475      H1486   1.083       .  S
C1476      C1477   1.409       .  A
C1477      C1478   1.412       .  A
C1477      H1487   1.083       .  S
C1478      H1488   1.082       .  S
C1489      C1490   1.404       .  A
C1489      C1494   1.410       .  A
C1490      C1491   1.406       .  A
C1490      H1503   1.083       .  S
C1491      C1492   1.409       .  A
C1491      H1504   1.083       .  S
C1492      C1493   1.404       .  A
C1492      C1495   1.492       .  S
C1493      C1494   1.397       .  A
C1493      H1505   1.082       .  S
C1494      H1506   1.083       .  S
C1495      C1496   1.355       .  D
C1495      H1507   1.085       .  S
C1496      C1497   1.493       .  S
C1496      H1508   1.085       .  S
C1497      C1498   1.410       .  A
C1497      C1502   1.402       .  A
C1498      C1499   1.409       .  A
C1498      H1509   1.083       .  S
C1499      C1500   1.406       .  A
C1499      H1510   1.083       .  S
C1500      C1501   1.411       .  A
C1501      C1502   1.393       .  A
C1501      H1511   1.083       .  S
C1502      H1512   1.082       .  S
C1513      C1514   1.407       .  A
C1513      C1518   1.407       .  A
C1514      C1515   1.406       .  A
C1514      H1527   1.083       .  S
C1515      C1516   1.407       .  A
C1515      H1528   1.083       .  S
C1516      C1517   1.405       .  A
C1516      C1519   1.491   1_655  S
C1517      C1518   1.391       .  A
C1517      H1529   1.081       .  S
C1518      H1530   1.082       .  S
C1519      C1520   1.349       .  D
C1519      H1531   1.086   1_455  S
C1520      C1521   1.481       .  S
C1520      H1532   1.085       .  S
C1521      C1522   1.406       .  A
C1521      C1526   1.401       .  A
C1522      C1523   1.405       .  A
C1522      H1533   1.082       .  S
C1523      C1524   1.407       .  A
C1523      H1534   1.083       .  S
C1524      C1525   1.405       .  A
C1525      C1526   1.394       .  A
C1525      H1535   1.083       .  S
C1526      H1536   1.084       .  S
C1537      C1538   1.406       .  A
C1537      C1542   1.408       .  A
C1538      C1539   1.405   1_565  A
C1538      H1551   1.083       .  S
C1539      C1540   1.406       .  A
C1539      H1552   1.083       .  S
C1540      C1541   1.406       .  A
C1540      C1543   1.491       .  S
C1541      C1542   1.397   1_545  A
C1541      H1553   1.082       .  S
C1542      H1554   1.083       .  S
C1543      C1544   1.350       .  D
C1543      H1555   1.085       .  S
C1544      C1545   1.491       .  S
C1544      H1556   1.086       .  S
C1545      C1546   1.405       .  A
C1545      C1550   1.407       .  A
C1546      C1547   1.401       .  A
C1546      H1557   1.083       .  S
C1547      C1548   1.405       .  A
C1547      H1558   1.083       .  S
C1548      C1549   1.407       .  A
C1549      C1550   1.401       .  A
C1549      H1559   1.083       .  S
C1550      H1560   1.082       .  S
C1561      C1562   1.407       .  A
C1561      C1566   1.407       .  A
C1562      C1563   1.406       .  A
C1562      H1575   1.083       .  S
C1563      C1564   1.407   1_655  A
C1563      H1576   1.083   1_655  S
C1564      C1565   1.406       .  A
C1564      C1567   1.493       .  S
C1565      C1566   1.392   1_455  A
C1565      H1577   1.081       .  S
C1566      H1578   1.082       .  S
C1567      C1568   1.349       .  D
C1567      H1579   1.085       .  S
C1568      C1569   1.489       .  S
C1568      H1580   1.085       .  S
C1569      C1570   1.410       .  A
C1569      C1574   1.402       .  A
C1570      C1571   1.405       .  A
C1570      H1581   1.081       .  S
C1571      C1572   1.407       .  A
C1571      H1582   1.083       .  S
C1572      C1573   1.406       .  A
C1573      C1574   1.394       .  A
C1573      H1583   1.083       .  S
C1574      H1584   1.084       .  S
C1585      C1586   1.408       .  A
C1585      C1590   1.407       .  A
C1586      C1587   1.409       .  A
C1586      H1599   1.083       .  S
C1587      C1588   1.407       .  A
C1587      H1600   1.083       .  S
C1588      C1589   1.406       .  A
C1588      C1591   1.495       .  S
C1589      C1590   1.394       .  A
C1589      H1601   1.082       .  S
C1590      H1602   1.083       .  S
C1591      C1592   1.352   1_455  D
C1591      H1603   1.084       .  S
C1592      C1593   1.492       .  S
C1592      H1604   1.086       .  S
C1593      C1594   1.404       .  A
C1593      C1598   1.410       .  A
C1594      C1595   1.394       .  A
C1594      H1605   1.084       .  S
C1595      C1596   1.402       .  A
C1595      H1606   1.084       .  S
C1596      C1597   1.407       .  A
C1597      C1598   1.408       .  A
C1597      H1607   1.083       .  S
C1598      H1608   1.081       .  S
C1609      C1610   1.410       .  A
C1609      C1614   1.403       .  A
C1610      C1611   1.401       .  A
C1610      H1623   1.083       .  S
C1611      C1612   1.403       .  A
C1611      H1624   1.083       .  S
C1612      C1613   1.409       .  A
C1612      C1615   1.489       .  S
C1613      C1614   1.394       .  A
C1613      H1625   1.081       .  S
C1614      H1626   1.083       .  S
C1615      C1616   1.345       .  D
C1615      H1627   1.086       .  S
C1616      C1617   1.480       .  S
C1616      H1628   1.085       .  S
C1617      C1618   1.400   1_655  A
C1617      C1622   1.408       .  A
C1618      C1619   1.391       .  A
C1618      H1629   1.084       .  S
C1619      C1620   1.404       .  A
C1619      H1630   1.083       .  S
C1620      C1621   1.408       .  A
C1621      C1622   1.405   1_455  A
C1621      H1631   1.083       .  S
C1622      H1632   1.082       .  S
C1633      C1634   1.408       .  A
C1633      C1638   1.409       .  A
C1634      C1635   1.407       .  A
C1634      H1647   1.083       .  S
C1635      C1636   1.407       .  A
C1635      H1648   1.083       .  S
C1636      C1637   1.408       .  A
C1636      C1639   1.501       .  S
C1637      C1638   1.402       .  A
C1637      H1649   1.082       .  S
C1638      H1650   1.083       .  S
C1639      C1640   1.352       .  D
C1639      H1651   1.086       .  S
C1640      C1641   1.496       .  S
C1640      H1652   1.086       .  S
C1641      C1642   1.402       .  A
C1641      C1646   1.411       .  A
C1642      C1643   1.395       .  A
C1642      H1653   1.084       .  S
C1643      C1644   1.406       .  A
C1643      H1654   1.083       .  S
C1644      C1645   1.409       .  A
C1645      C1646   1.412       .  A
C1645      H1655   1.083       .  S
C1646      H1656   1.082       .  S
C1657      C1658   1.403       .  A
C1657      C1662   1.410       .  A
C1658      C1659   1.404   1_545  A
C1658      H1671   1.083       .  S
C1659      C1660   1.408   1_565  A
C1659      H1672   1.083       .  S
C1660      C1661   1.405       .  A
C1660      C1663   1.492   1_546  S
C1661      C1662   1.398       .  A
C1661      H1673   1.082   1_556  S
C1662      H1674   1.083       .  S
C1663      C1664   1.355   1_455  D
C1663      H1675   1.084       .  S
C1664      C1665   1.496       .  S
C1664      H1676   1.085   1_565  S
C1665      C1666   1.404       .  A
C1665      C1670   1.410       .  A
C1666      C1667   1.394       .  A
C1666      H1677   1.081   1_655  S
C1667      C1668   1.409       .  A
C1667      H1678   1.083       .  S
C1668      C1669   1.407       .  A
C1669      C1670   1.408       .  A
C1669      H1679   1.083       .  S
C1670      H1680   1.083       .  S
C1681      C1682   1.405       .  A
C1681      C1686   1.407       .  A
C1682      C1683   1.404       .  A
C1682      H1695   1.083       .  S
C1683      C1684   1.406       .  A
C1683      H1696   1.083       .  S
C1684      C1685   1.408       .  A
C1684      C1687   1.493       .  S
C1685      C1686   1.397       .  A
C1685      H1697   1.081       .  S
C1686      H1698   1.083       .  S
C1687      C1688   1.350       .  D
C1687      H1699   1.084       .  S
C1688      C1689   1.490       .  S
C1688      H1700   1.084       .  S
C1689      C1690   1.402       .  A
C1689      C1694   1.410       .  A
C1690      C1691   1.394       .  A
C1690      H1701   1.084       .  S
C1691      C1692   1.407       .  A
C1691      H1702   1.083       .  S
C1692      C1693   1.407       .  A
C1693      C1694   1.405       .  A
C1693      H1703   1.083       .  S
C1694      H1704   1.081       .  S
C1705      C1706   1.407       .  A
C1705      C1710   1.407       .  A
C1706      C1707   1.403       .  A
C1706      H1719   1.083       .  S
C1707      C1708   1.404       .  A
C1707      H1720   1.083       .  S
C1708      C1709   1.408       .  A
C1708      C1711   1.492   1_556  S
C1709      C1710   1.399       .  A
C1709      H1721   1.082   1_556  S
C1710      H1722   1.083       .  S
C1711      C1712   1.346       .  D
C1711      H1723   1.087       .  S
C1712      C1713   1.483       .  S
C1712      H1724   1.086       .  S
C1713      C1714   1.398       .  A
C1713      C1718   1.408       .  A
C1714      C1715   1.391       .  A
C1714      H1725   1.084   1_554  S
C1715      C1716   1.408       .  A
C1715      H1726   1.083       .  S
C1716      C1717   1.410       .  A
C1717      C1718   1.410       .  A
C1717      H1727   1.083       .  S
C1718      H1728   1.083       .  S
C1729      C1730   1.409       .  A
C1729      C1734   1.406       .  A
C1730      C1731   1.406       .  A
C1730      H1743   1.083       .  S
C1731      C1732   1.405       .  A
C1731      H1744   1.083       .  S
C1732      C1733   1.406       .  A
C1732      C1735   1.491       .  S
C1733      C1734   1.395       .  A
C1733      H1745   1.083       .  S
C1734      H1746   1.083       .  S
C1735      C1736   1.350   1_655  D
C1735      H1747   1.084   1_655  S
C1736      C1737   1.491       .  S
C1736      H1748   1.087   1_455  S
C1737      C1738   1.410       .  A
C1737      C1742   1.405       .  A
C1738      C1739   1.406       .  A
C1738      H1749   1.081       .  S
C1739      C1740   1.406       .  A
C1739      H1750   1.083       .  S
C1740      C1741   1.402       .  A
C1741      C1742   1.394       .  A
C1741      H1751   1.084       .  S
C1742      H1752   1.084       .  S
C1753      C1754   1.408       .  A
C1753      C1758   1.408       .  A
C1754      C1755   1.408       .  A
C1754      H1767   1.083       .  S
C1755      C1756   1.407       .  A
C1755      H1768   1.083       .  S
C1756      C1757   1.405       .  A
C1756      C1759   1.495       .  S
C1757      C1758   1.399       .  A
C1757      H1769   1.083       .  S
C1758      H1770   1.083       .  S
C1759      C1760   1.351       .  D
C1759      H1771   1.086       .  S
C1760      C1761   1.495       .  S
C1760      H1772   1.087       .  S
C1761      C1762   1.404       .  A
C1761      C1766   1.409       .  A
C1762      C1763   1.401       .  A
C1762      H1773   1.083       .  S
C1763      C1764   1.408       .  A
C1763      H1774   1.083       .  S
C1764      C1765   1.410       .  A
C1765      C1766   1.408       .  A
C1765      H1775   1.083       .  S
C1766      H1776   1.082       .  S
C1777      C1778   1.408       .  A
C1777      C1782   1.407       .  A
C1778      C1779   1.402       .  A
C1778      H1791   1.083       .  S
C1779      C1780   1.404       .  A
C1779      H1792   1.083       .  S
C1780      C1781   1.408       .  A
C1780      C1783   1.492       .  S
C1781      C1782   1.398       .  A
C1781      H1793   1.081       .  S
C1782      H1794   1.083       .  S
C1783      C1784   1.348       .  D
C1783      H1795   1.085       .  S
C1784      C1785   1.489       .  S
C1784      H1796   1.085       .  S
C1785      C1786   1.402       .  A
C1785      C1790   1.410       .  A
C1786      C1787   1.394       .  A
C1786      H1797   1.084       .  S
C1787      C1788   1.405       .  A
C1787      H1798   1.083       .  S
C1788      C1789   1.407       .  A
C1789      C1790   1.406       .  A
C1789      H1799   1.083       .  S
C1790      H1800   1.082       .  S
C1801      C1802   1.406       .  A
C1801      C1806   1.404       .  A
C1802      C1803   1.402       .  A
C1802      H1815   1.083       .  S
C1803      C1804   1.406       .  A
C1803      H1816   1.083   1_455  S
C1804      C1805   1.410       .  A
C1804      C1807   1.495   1_455  S
C1805      C1806   1.395       .  A
C1805      H1817   1.080       .  S
C1806      H1818   1.083       .  S
C1807      C1808   1.349       .  D
C1807      H1819   1.085       .  S
C1808      C1809   1.485       .  S
C1808      H1820   1.083       .  S
C1809      C1810   1.401       .  A
C1809      C1814   1.408       .  A
C1810      C1811   1.393       .  A
C1810      H1821   1.084       .  S
C1811      C1812   1.406       .  A
C1811      H1822   1.083       .  S
C1812      C1813   1.408       .  A
C1813      C1814   1.405       .  A
C1813      H1823   1.083       .  S
C1814      H1824   1.082       .  S
C1825      C1826   1.409       .  A
C1825      C1830   1.409       .  A
C1826      C1827   1.406       .  A
C1826      H1839   1.083       .  S
C1827      C1828   1.406       .  A
C1827      H1840   1.083       .  S
C1828      C1829   1.409       .  A
C1828      C1831   1.501       .  S
C1829      C1830   1.402       .  A
C1829      H1841   1.082       .  S
C1830      H1842   1.083       .  S
C1831      C1832   1.352       .  D
C1831      H1843   1.086       .  S
C1832      C1833   1.496       .  S
C1832      H1844   1.085       .  S
C1833      C1834   1.403       .  A
C1833      C1838   1.412       .  A
C1834      C1835   1.395       .  A
C1834      H1845   1.084       .  S
C1835      C1836   1.406       .  A
C1835      H1846   1.084       .  S
C1836      C1837   1.408       .  A
C1837      C1838   1.412       .  A
C1837      H1847   1.083       .  S
C1838      H1848   1.082       .  S
C1849      C1850   1.407       .  A
C1849      C1854   1.407       .  A
C1850      C1851   1.405       .  A
C1850      H1863   1.083       .  S
C1851      C1852   1.406       .  A
C1851      H1864   1.083       .  S
C1852      C1853   1.406       .  A
C1852      C1855   1.490       .  S
C1853      C1854   1.393       .  A
C1853      H1865   1.082       .  S
C1854      H1866   1.082       .  S
C1855      C1856   1.348       .  D
C1855      H1867   1.086       .  S
C1856      C1857   1.483       .  S
C1856      H1868   1.086       .  S
C1857      C1858   1.401       .  A
C1857      C1862   1.408       .  A
C1858      C1859   1.393       .  A
C1858      H1869   1.084       .  S
C1859      C1860   1.404       .  A
C1859      H1870   1.083       .  S
C1860      C1861   1.407       .  A
C1861      C1862   1.406       .  A
C1861      H1871   1.083       .  S
C1862      H1872   1.082       .  S
C1873      C1874   1.407       .  A
C1873      C1878   1.405       .  A
C1874      C1875   1.392       .  A
C1874      H1887   1.083       .  S
C1875      C1876   1.400       .  A
C1875      H1888   1.084       .  S
C1876      C1877   1.408       .  A
C1876      C1879   1.482       .  S
C1877      C1878   1.403       .  A
C1877      H1889   1.082       .  S
C1878      H1890   1.083       .  S
C1879      C1880   1.347       .  D
C1879      H1891   1.084       .  S
C1880      C1881   1.489       .  S
C1880      H1892   1.086       .  S
C1881      C1882   1.404       .  A
C1881      C1886   1.408       .  A
C1882      C1883   1.400       .  A
C1882      H1893   1.083       .  S
C1883      C1884   1.407       .  A
C1883      H1894   1.083       .  S
C1884      C1885   1.406       .  A
C1885      C1886   1.396       .  A
C1885      H1895   1.083       .  S
C1886      H1896   1.081       .  S
C1897      C1898   1.407   1_556  A
C1897      C1902   1.407       .  A
C1898      C1899   1.397       .  A
C1898      H1911   1.083       .  S
C1899      C1900   1.406   1_554  A
C1899      H1912   1.082       .  S
C1900      C1901   1.406       .  A
C1900      C1903   1.491   1_556  S
C1901      C1902   1.406       .  A
C1901      H1913   1.083       .  S
C1902      H1914   1.083       .  S
C1903      C1904   1.350       .  D
C1903      H1915   1.085   1_554  S
C1904      C1905   1.492       .  S
C1904      H1916   1.087       .  S
C1905      C1906   1.408       .  A
C1905      C1910   1.406       .  A
C1906      C1907   1.402       .  A
C1906      H1917   1.081       .  S
C1907      C1908   1.409       .  A
C1907      H1918   1.083       .  S
C1908      C1909   1.405       .  A
C1909      C1910   1.401       .  A
C1909      H1919   1.083       .  S
C1910      H1920   1.083       .  S
C1921      C1922   1.403       .  A
C1921      C1926   1.408       .  A
C1922      C1923   1.402       .  A
C1922      H1935   1.083       .  S
C1923      C1924   1.407       .  A
C1923      H1936   1.083       .  S
C1924      C1925   1.404       .  A
C1924      C1927   1.488       .  S
C1925      C1926   1.398       .  A
C1925      H1937   1.082       .  S
C1926      H1938   1.083       .  S
C1927      C1928   1.354       .  D
C1927      H1939   1.084       .  S
C1928      C1929   1.494       .  S
C1928      H1940   1.085       .  S
C1929      C1930   1.410       .  A
C1929      C1934   1.405       .  A
C1930      C1931   1.408       .  A
C1930      H1941   1.083       .  S
C1931      C1932   1.404       .  A
C1931      H1942   1.083       .  S
C1932      C1933   1.406       .  A
C1933      C1934   1.393       .  A
C1933      H1943   1.083       .  S
C1934      H1944   1.081       .  S
C1945      C1946   1.408       .  A
C1945      C1950   1.409       .  A
C1946      C1947   1.407       .  A
C1946      H1959   1.083       .  S
C1947      C1948   1.406       .  A
C1947      H1960   1.083       .  S
C1948      C1949   1.406       .  A
C1948      C1951   1.493       .  S
C1949      C1950   1.396       .  A
C1949      H1961   1.082       .  S
C1950      H1962   1.083       .  S
C1951      C1952   1.352       .  D
C1951      H1963   1.084       .  S
C1952      C1953   1.493       .  S
C1952      H1964   1.086       .  S
C1953      C1954   1.410       .  A
C1953      C1958   1.405       .  A
C1954      C1955   1.406       .  A
C1954      H1965   1.081       .  S
C1955      C1956   1.406       .  A
C1955      H1966   1.083       .  S
C1956      C1957   1.404       .  A
C1957      C1958   1.396       .  A
C1957      H1967   1.084       .  S
C1958      H1968   1.084       .  S
C1969      C1970   1.408       .  A
C1969      C1974   1.410       .  A
C1970      C1971   1.403       .  A
C1970      H1983   1.083       .  S
C1971      C1972   1.404       .  A
C1971      H1984   1.083       .  S
C1972      C1973   1.410       .  A
C1972      C1975   1.500       .  S
C1973      C1974   1.408       .  A
C1973      H1985   1.083       .  S
C1974      H1986   1.083       .  S
C1975      C1976   1.351       .  D
C1975      H1987   1.086       .  S
C1976      C1977   1.499       .  S
C1976      H1988   1.087       .  S
C1977      C1978   1.401   1_545  A
C1977      C1982   1.412       .  A
C1978      C1979   1.399       .  A
C1978      H1989   1.084       .  S
C1979      C1980   1.411       .  A
C1979      H1990   1.083       .  S
C1980      C1981   1.410       .  A
C1981      C1982   1.415   1_565  A
C1981      H1991   1.083       .  S
C1982      H1992   1.082       .  S
C1993      C1994   1.404       .  A
C1993      C1998   1.407       .  A
C1994      C1995   1.395       .  A
C1994      H2007   1.083       .  S
C1995      C1996   1.404       .  A
C1995      H2008   1.083       .  S
C1996      C1997   1.409       .  A
C1996      C1999   1.490       .  S
C1997      C1998   1.402       .  A
C1997      H2009   1.080       .  S
C1998      H2010   1.083       .  S
C1999      C2000   1.350       .  D
C1999      H2011   1.084       .  S
C2000      C2001   1.491       .  S
C2000      H2012   1.083       .  S
C2001      C2002   1.406       .  A
C2001      C2006   1.407       .  A
C2002      C2003   1.403       .  A
C2002      H2013   1.083       .  S
C2003      C2004   1.405       .  A
C2003      H2014   1.083       .  S
C2004      C2005   1.405       .  A
C2005      C2006   1.394       .  A
C2005      H2015   1.083       .  S
C2006      H2016   1.081       .  S
C2017      C2018   1.405       .  A
C2017      C2022   1.407       .  A
C2018      C2019   1.395       .  A
C2018      H2031   1.083       .  S
C2019      C2020   1.402       .  A
C2019      H2032   1.084       .  S
C2020      C2021   1.409       .  A
C2020      C2023   1.487       .  S
C2021      C2022   1.404       .  A
C2021      H2033   1.081       .  S
C2022      H2034   1.083       .  S
C2023      C2024   1.347       .  D
C2023      H2035   1.086       .  S
C2024      C2025   1.488       .  S
C2024      H2036   1.085       .  S
C2025      C2026   1.403       .  A
C2025      C2030   1.408       .  A
C2026      C2027   1.400       .  A
C2026      H2037   1.083       .  S
C2027      C2028   1.408       .  A
C2027      H2038   1.083       .  S
C2028      C2029   1.405       .  A
C2029      C2030   1.398       .  A
C2029      H2039   1.083       .  S
C2030      H2040   1.082       .  S
C2041      C2042   1.407       .  A
C2041      C2046   1.411       .  A
C2042      C2043   1.398       .  A
C2042      H2055   1.083       .  S
C2043      C2044   1.403       .  A
C2043      H2056   1.083       .  S
C2044      C2045   1.412       .  A
C2044      C2047   1.501       .  S
C2045      C2046   1.415       .  A
C2045      H2057   1.082       .  S
C2046      H2058   1.083       .  S
C2047      C2048   1.354       .  D
C2047      H2059   1.085       .  S
C2048      C2049   1.507       .  S
C2048      H2060   1.086       .  S
C2049      C2050   1.409       .  A
C2049      C2054   1.409       .  A
C2050      C2051   1.409       .  A
C2050      H2061   1.083       .  S
C2051      C2052   1.409       .  A
C2051      H2062   1.083       .  S
C2052      C2053   1.409       .  A
C2053      C2054   1.403       .  A
C2053      H2063   1.083       .  S
C2054      H2064   1.081       .  S
C2065      C2066   1.409       .  A
C2065      C2070   1.406       .  A
C2066      C2067   1.407       .  A
C2066      H2079   1.083       .  S
C2067      C2068   1.405       .  A
C2067      H2080   1.083       .  S
C2068      C2069   1.405       .  A
C2068      C2071   1.490       .  S
C2069      C2070   1.392       .  A
C2069      H2081   1.083       .  S
C2070      H2082   1.083       .  S
C2071      C2072   1.349       .  D
C2071      H2083   1.085       .  S
C2072      C2073   1.486       .  S
C2072      H2084   1.087       .  S
C2073      C2074   1.408       .  A
C2073      C2078   1.403       .  A
C2074      C2075   1.407       .  A
C2074      H2085   1.082       .  S
C2075      C2076   1.409       .  A
C2075      H2086   1.083       .  S
C2076      C2077   1.402       .  A
C2077      C2078   1.393       .  A
C2077      H2087   1.083       .  S
C2078      H2088   1.084       .  S
C2089      C2090   1.405       .  A
C2089      C2094   1.404       .  A
C2090      C2091   1.393       .  A
C2090      H2103   1.083       .  S
C2091      C2092   1.403       .  A
C2091      H2104   1.084       .  S
C2092      C2093   1.410       .  A
C2092      C2095   1.486       .  S
C2093      C2094   1.398       .  A
C2093      H2105   1.079       .  S
C2094      H2106   1.083       .  S
C2095      C2096   1.347       .  D
C2095      H2107   1.086       .  S
C2096      C2097   1.481       .  S
C2096      H2108   1.082       .  S
C2097      C2098   1.403       .  A
C2097      C2102   1.406       .  A
C2098      C2099   1.398       .  A
C2098      H2109   1.083       .  S
C2099      C2100   1.404       .  A
C2099      H2110   1.083       .  S
C2100      C2101   1.405       .  A
C2101      C2102   1.395       .  A
C2101      H2111   1.084       .  S
C2102      H2112   1.082       .  S
C2113      C2114   1.406       .  A
C2113      C2118   1.408       .  A
C2114      C2115   1.395       .  A
C2114      H2127   1.083       .  S
C2115      C2116   1.402       .  A
C2115      H2128   1.084       .  S
C2116      C2117   1.410       .  A
C2116      C2119   1.491       .  S
C2117      C2118   1.409       .  A
C2117      H2129   1.082       .  S
C2118      H2130   1.083       .  S
C2119      C2120   1.351       .  D
C2119      H2131   1.085       .  S
C2120      C2121   1.499       .  S
C2120      H2132   1.086       .  S
C2121      C2122   1.407       .  A
C2121      C2126   1.408       .  A
C2122      C2123   1.406       .  A
C2122      H2133   1.083       .  S
C2123      C2124   1.408       .  A
C2123      H2134   1.083       .  S
C2124      C2125   1.409       .  A
C2125      C2126   1.400       .  A
C2125      H2135   1.083       .  S
C2126      H2136   1.081       .  S
C2137      C2138   1.403       .  A
C2137      C2142   1.410       .  A
C2138      C2139   1.405       .  A
C2138      H2151   1.083       .  S
C2139      C2140   1.411       .  A
C2139      H2152   1.083       .  S
C2140      C2141   1.407       .  A
C2140      C2143   1.499   1_545  S
C2141      C2142   1.400       .  A
C2141      H2153   1.080       .  S
C2142      H2154   1.083       .  S
C2143      C2144   1.359       .  D
C2143      H2155   1.081       .  S
C2144      C2145   1.503       .  S
C2144      H2156   1.083       .  S
C2145      C2146   1.413       .  A
C2145      C2150   1.407       .  A
C2146      C2147   1.409       .  A
C2146      H2157   1.083       .  S
C2147      C2148   1.404       .  A
C2147      H2158   1.083       .  S
C2148      C2149   1.409       .  A
C2149      C2150   1.394       .  A
C2149      H2159   1.083       .  S
C2150      H2160   1.078       .  S
C2161      C2162   1.405       .  A
C2161      C2166   1.409       .  A
C2162      C2163   1.394       .  A
C2162      H2175   1.083       .  S
C2163      C2164   1.404       .  A
C2163      H2176   1.084       .  S
C2164      C2165   1.411       .  A
C2164      C2167   1.493       .  S
C2165      C2166   1.407       .  A
C2165      H2177   1.080       .  S
C2166      H2178   1.083       .  S
C2167      C2168   1.350       .  D
C2167      H2179   1.086       .  S
C2168      C2169   1.493       .  S
C2168      H2180   1.084       .  S
C2169      C2170   1.406       .  A
C2169      C2174   1.408       .  A
C2170      C2171   1.404       .  A
C2170      H2181   1.083       .  S
C2171      C2172   1.407       .  A
C2171      H2182   1.083       .  S
C2172      C2173   1.403       .  A
C2173      C2174   1.396       .  A
C2173      H2183   1.083       .  S
C2174      H2184   1.082       .  S
C2185      C2186   1.409       .  A
C2185      C2190   1.410       .  A
C2186      C2187   1.397       .  A
C2186      H2199   1.083       .  S
C2187      C2188   1.402       .  A
C2187      H2200   1.084       .  S
C2188      C2189   1.411       .  A
C2188      C2191   1.497       .  S
C2189      C2190   1.413       .  A
C2189      H2201   1.082       .  S
C2190      H2202   1.083       .  S
C2191      C2192   1.350       .  D
C2191      H2203   1.087       .  S
C2192      C2193   1.499       .  S
C2192      H2204   1.086       .  S
C2193      C2194   1.407       .  A
C2193      C2198   1.408       .  A
C2194      C2195   1.407       .  A
C2194      H2205   1.083       .  S
C2195      C2196   1.408       .  A
C2195      H2206   1.083       .  S
C2196      C2197   1.408       .  A
C2197      C2198   1.403       .  A
C2197      H2207   1.083       .  S
C2198      H2208   1.082       .  S
