geometry optimzed in LAMMPS
_audit_creation_date              2020-12-01 
_audit_creation_method            'lammps2cif' 
_symmetry_space_group_name_H-M    'P1' 
_symmetry_Int_Tables_number       1 
_symmetry_cell_setting            triclinic 
loop_ 
_symmetry_equiv_pos_as_xyz 
  x,y,z 
_cell_length_a                    81.32850198 
_cell_length_b                    81.53914559745296 
_cell_length_c                    30.439919837193788 
_cell_angle_alpha                 90.03729717560033 
_cell_angle_beta                  89.97040096621292 
_cell_angle_gamma                 120.22057598864576 
loop_ 
_atom_site_label 
_atom_site_type_symbol 
_atom_site_fract_x 
_atom_site_fract_y 
_atom_site_fract_z 
_atom_site_charge 
O1          O  0.12289966  0.23603223  0.50383651    -0.85200
O2          O  0.09786269  0.22099890  0.57251494    -0.82300
C3          C  0.09114401  0.20341677  0.56661801     0.98200
O4          O  0.10109224  0.19591498  0.57466209    -0.82300
O5          O  0.13323172  0.19305191  0.58486549    -0.85000
C6          C  0.13991561  0.19376738  0.54700701     1.02800
O7          O  0.14682218  0.20901732  0.52525238    -0.77700
O8          O  0.15290309  0.24404650  0.49756284    -0.77900
C9          C  0.13724236  0.24030569  0.48014158     1.02700
O10         O  0.14902384  0.26650196  0.55767305    -0.85200
O11         O  0.12620029  0.24943345  0.62983419    -0.82300
C12         C  0.11719104  0.23704055  0.65881604     0.98200
O13         O  0.11128245  0.21971949  0.65106878    -0.82300
O14         O  0.14500052  0.21966259  0.65558802    -0.84900
C15         C  0.16128887  0.22267541  0.64514886     1.02700
O16         O  0.16676257  0.22551853  0.60550953    -0.77700
O17         O  0.17058915  0.26016756  0.58114761    -0.77900
C18         C  0.16545912  0.27210480  0.57278449     1.02700
Cr19       Cr  0.12478951  0.24221616  0.56692052     1.93700
Cr20       Cr  0.12355563  0.20859840  0.61370849     1.93200
Cr21       Cr  0.15757759  0.23428198  0.55421820     1.39100
O22         O  0.13535177  0.22832811  0.57812126    -1.23000
O23         O  0.23151587  0.43793553  0.66549382    -0.85200
O24         O  0.22777448  0.46662287  0.63027576    -0.82300
C25         C  0.23265430  0.48220668  0.61183767     0.98200
O26         O  0.24494194  0.48806384  0.58132975    -0.82300
O27         O  0.28045863  0.49673451  0.61492813    -0.85000
C28         C  0.29382312  0.49447863  0.62873798     1.02800
O29         O  0.29245415  0.47835719  0.62649135    -0.77700
O30         O  0.26199693  0.45537139  0.67952846    -0.77900
C31         C  0.24506044  0.44607773  0.69295806     1.02700
O32         O  0.22860328  0.42281198  0.57748873    -0.85200
O33         O  0.22252316  0.45047658  0.54335904    -0.82300
C34         C  0.23272963  0.45688651  0.50921869     0.98200
O35         O  0.25050039  0.46719243  0.51205790    -0.82300
O36         O  0.28586202  0.47787818  0.54129730    -0.84900
C37         C  0.28704537  0.46307057  0.53637987     1.02700
O38         O  0.27830941  0.44902693  0.56175309    -0.77700
O39         O  0.25076300  0.42432324  0.62048242    -0.77900
C40         C  0.23670192  0.41486881  0.59545350     1.02700
Cr41       Cr  0.22958437  0.44556739  0.60352175     1.93700
Cr42       Cr  0.26456992  0.48085319  0.56511214     1.93200
Cr43       Cr  0.26967065  0.45229773  0.62022256     1.39100
O44         O  0.25454178  0.45963572  0.59627544    -1.23000
O45         O  0.54065327  0.44116267  0.33138405    -0.85200
O46         O  0.56586762  0.44852125  0.26448385    -0.82300
C47         C  0.57133556  0.43670218  0.27139489     0.98200
O48         O  0.56011900  0.41920192  0.26540984    -0.82300
O49         O  0.52627110  0.38518378  0.25355935    -0.85000
C50         C  0.51884619  0.37983590  0.29105983     1.02800
O51         O  0.51309404  0.38945046  0.31146024    -0.77700
O52         O  0.51024230  0.42021779  0.33781687    -0.77900
C53         C  0.52622015  0.43152439  0.35522587     1.02700
O54         O  0.51643269  0.44743231  0.27407549    -0.85200
O55         O  0.53965442  0.45062939  0.20395890    -0.82300
C56         C  0.54848866  0.44621530  0.17663430     0.98200
O57         O  0.55267457  0.43371518  0.18662988    -0.82300
O58         O  0.51769191  0.40166633  0.18104112    -0.84900
C59         C  0.50068900  0.38955727  0.18976280     1.02700
O60         O  0.49467994  0.38759756  0.22905066    -0.77700
O61         O  0.49369144  0.41967459  0.25260222    -0.77900
C62         C  0.49971336  0.43699066  0.25973784     1.02700
Cr63       Cr  0.53967421  0.44506576  0.26766305     1.93700
Cr64       Cr  0.53835638  0.41067903  0.22447945     1.93200
Cr65       Cr  0.50469060  0.40544271  0.28095439     1.39100
O66         O  0.52750275  0.42032722  0.25789129    -1.23000
O67         O  0.43514291  0.53665182  0.16615608    -0.85200
O68         O  0.43984065  0.56939187  0.20217220    -0.82300
C69         C  0.43608657  0.58041311  0.22305368     0.98200
O70         O  0.42346025  0.57409081  0.25267095    -0.82300
O71         O  0.38827795  0.54965565  0.21479057    -0.85000
C72         C  0.37451161  0.53472628  0.19916865     1.02800
O73         O  0.37455206  0.51921888  0.20052122    -0.77700
O74         O  0.40507279  0.52511048  0.14950488    -0.77900
C75         C  0.42220357  0.53219634  0.13763475     1.02700
O76         O  0.43599695  0.52334365  0.25388155    -0.85200
O77         O  0.44319534  0.55725719  0.28898038    -0.82300
C78         C  0.43281925  0.55339088  0.32284032     0.98200
O79         O  0.41508704  0.54606022  0.31899752    -0.82300
O80         O  0.37963977  0.52366353  0.28641568    -0.84900
C81         C  0.37757904  0.50731415  0.29117923     1.02700
O82         O  0.38592030  0.50153441  0.26589718    -0.77700
O83         O  0.41381326  0.50342136  0.20952981    -0.77900
C84         C  0.42762021  0.50745956  0.23509544     1.02700
Cr85       Cr  0.43659754  0.54584996  0.22824041     1.93700
Cr86       Cr  0.40238731  0.54755227  0.26549938     1.93200
Cr87       Cr  0.39602076  0.51393138  0.20826609     1.39100
O88         O  0.41171993  0.53586660  0.23393321    -1.23000
O89         O  0.23638704  0.14226680  0.00319989    -0.85200
O90         O  0.20579589  0.10970774  0.97156493    -0.82300
C91         C  0.19015729  0.09888597  0.95308225     0.98200
O92         O  0.18443580  0.10524365  0.92248194    -0.82300
O93         O  0.17541739  0.13029738  0.96295961    -0.85000
C94         C  0.17783353  0.14531958  0.98090595     1.02800
O95         O  0.19362290  0.16067189  0.97768106    -0.77700
O96         O  0.22014001  0.15594853  0.02260336    -0.77900
C97         C  0.23010930  0.14866558  0.03265600     1.02700
O98         O  0.24838886  0.15424979  0.91420870    -0.85200
O99         O  0.21961314  0.12043350  0.88270166    -0.82300
C100        C  0.21291845  0.12456756  0.84970956     0.98200
O101        O  0.20338689  0.13273880  0.85463999    -0.82300
O102        O  0.19105915  0.15540785  0.89059563    -0.84900
C103        C  0.20476848  0.17206120  0.88520241     1.02700
O104        O  0.22012511  0.17769955  0.90606533    -0.77700
O105        O  0.24802294  0.17585113  0.95600839    -0.77900
C106        C  0.25690101  0.17059995  0.93079672     1.02700
Cr107      Cr  0.22640306  0.13253737  0.94263006     1.93700
Cr108      Cr  0.19035641  0.13178671  0.91006841     1.93200
Cr109      Cr  0.21993833  0.16582125  0.96353226     1.39100
O110        O  0.21224700  0.14337307  0.93894183    -1.23000
O111        O  0.43577054  0.23197793  0.83435623    -0.85200
O112        O  0.45159527  0.22329567  0.90358134    -0.82300
C113        C  0.46916999  0.23419279  0.89650962     0.98200
O114        O  0.47647033  0.25189107  0.90054595    -0.82300
O115        O  0.47929237  0.28700616  0.91061028    -0.85000
C116        C  0.47772049  0.29280540  0.87329577     1.02800
O117        O  0.46218456  0.28387130  0.85271519    -0.77700
O118        O  0.42768946  0.25376110  0.82706710    -0.77900
C119        C  0.43159476  0.24190148  0.81002164     1.02700
O120        O  0.40530863  0.22756838  0.88852280    -0.85200
O121        O  0.42369956  0.22373235  0.96112896    -0.82300
C122        C  0.43655049  0.22792532  0.98946495     0.98200
O123        O  0.45376750  0.23894436  0.97903032    -0.82300
O124        O  0.45377150  0.27226935  0.98298379    -0.84900
C125        C  0.45049671  0.28535803  0.97349031     1.02700
O126        O  0.44621552  0.28710869  0.93433805    -0.77700
O127        O  0.41188354  0.25555244  0.91161149    -0.77900
C128        C  0.39981157  0.23857591  0.90262816     1.02700
Cr129      Cr  0.43008889  0.22845810  0.89767168     1.93700
Cr130      Cr  0.46433844  0.26187878  0.94051424     1.93200
Cr131      Cr  0.43738497  0.26881616  0.88323945     1.39100
O132        O  0.44399969  0.25317337  0.90685318    -1.23000
O133        O  0.56406332  0.12819011  0.76334831    -0.85200
O134        O  0.53851268  0.10735578  0.82697596    -0.82300
C135        C  0.52442254  0.10231120  0.85187859     0.98200
O136        O  0.50863190  0.09929463  0.83656786    -0.82300
O137        O  0.51303335  0.13429084  0.82131006    -0.85000
C138        C  0.51906788  0.15047589  0.80493780     1.02800
O139        O  0.52643387  0.15402985  0.76715709    -0.77700
O140        O  0.55916689  0.15205532  0.77302176    -0.77900
C141        C  0.56979550  0.14501087  0.77604199     1.02700
O142        O  0.53727444  0.10336020  0.69798193    -0.85200
O143        O  0.51362746  0.08033095  0.76374064    -0.82300
C144        C  0.49670814  0.07513852  0.75279224     0.98200
O145        O  0.49106151  0.08696297  0.75120014    -0.82300
O146        O  0.49374365  0.12179409  0.73763298    -0.84900
C147        C  0.49979837  0.12770345  0.69910265     1.02700
O148        O  0.51663764  0.13268114  0.68814807    -0.77700
O149        O  0.55115876  0.13407818  0.68830230    -0.77900
C150        C  0.54638322  0.11773799  0.67392620     1.02700
Cr151      Cr  0.53742199  0.10578816  0.76260538     1.93700
Cr152      Cr  0.50341577  0.11120421  0.78452974     1.93200
Cr153      Cr  0.53747361  0.14143988  0.73149615     1.39100
O154        O  0.52594827  0.11936113  0.75946670    -1.23000
O155        O  0.44523914  0.88299662  0.73420976    -0.85200
O156        O  0.43769938  0.90247658  0.67132460    -0.82300
C157        C  0.42765838  0.90696574  0.64823794     0.98200
O158        O  0.41531561  0.90988369  0.66609993    -0.82300
O159        O  0.38554272  0.87400303  0.68220977    -0.85000
C160        C  0.37630359  0.85769196  0.69884606     1.02800
O161        O  0.38136854  0.85445207  0.73540376    -0.77700
O162        O  0.41682518  0.85843681  0.72491085    -0.77900
C163        C  0.43460221  0.86625016  0.72030493     1.02700
O164        O  0.44303354  0.90711915  0.80124235    -0.85200
O165        O  0.44031175  0.92924198  0.73569020    -0.82300
C166        C  0.42830345  0.93367456  0.74862616     0.98200
O167        O  0.41102539  0.92121338  0.75286955    -0.82300
O168        O  0.37984896  0.88566124  0.76726877    -0.84900
C169        C  0.38060820  0.87932040  0.80472328     1.02700
O170        O  0.39349871  0.87562282  0.81409664    -0.77700
O171        O  0.42767035  0.87643142  0.80974049    -0.77900
C172        C  0.43798767  0.89280962  0.82563442     1.02700
Cr173      Cr  0.43976396  0.90445840  0.73612293     1.93700
Cr174      Cr  0.39923547  0.89716491  0.71904658     1.93200
Cr175      Cr  0.40562189  0.86794970  0.76880508     1.39100
O176        O  0.41479171  0.88995393  0.74139276    -1.23000
O177        O  0.20324489  0.11865603  0.43531287    -0.85200
O178        O  0.21897099  0.11043831  0.50538849    -0.82300
C179        C  0.22288960  0.10042796  0.53003466     0.98200
O180        O  0.22819229  0.08948245  0.51386447    -0.82300
O181        O  0.19436643  0.05885150  0.48884222    -0.85000
C182        C  0.17878767  0.04944725  0.46892201     1.02800
O183        O  0.17660660  0.05481757  0.43147933    -0.77700
O184        O  0.17869593  0.08990113  0.43900936    -0.77900
C185        C  0.18583004  0.10759524  0.44355219     1.02700
O186        O  0.23148392  0.11869598  0.37864167    -0.85200
O187        O  0.25008549  0.11554622  0.45214779    -0.82300
C188        C  0.25586787  0.10485869  0.43755756     0.98200
O189        O  0.24424475  0.08770904  0.42936980    -0.82300
O190        O  0.21071990  0.05565907  0.40776312    -0.84900
C191        C  0.20651494  0.05685572  0.36829272     1.02700
O192        O  0.20173191  0.06887367  0.35795408    -0.77700
O193        O  0.20142828  0.10225839  0.36003611    -0.77900
C194        C  0.21851723  0.11412531  0.35028589     1.02700
Cr195      Cr  0.22502009  0.11398960  0.44213784     1.93700
Cr196      Cr  0.21890792  0.07415525  0.45800999     1.93200
Cr197      Cr  0.19112640  0.07969628  0.39989760     1.39100
O198        O  0.21163863  0.08915525  0.43340290    -1.23000
O199        O  0.45250889  0.23430656  0.36772109    -0.85200
O200        O  0.42084384  0.20250416  0.33822577    -0.82300
C201        C  0.42669800  0.19531885  0.30966732     0.98200
O202        O  0.43551182  0.18696728  0.32100640    -0.82300
O203        O  0.45991201  0.18000422  0.36810031    -0.85000
C204        C  0.47622383  0.19442812  0.36232060     1.02800
O205        O  0.47975538  0.21031653  0.37719319    -0.77700
O206        O  0.47405440  0.23809718  0.41573628    -0.77900
C207        C  0.46830893  0.24477189  0.38591326     1.02700
O208        O  0.43905358  0.22547463  0.45721113    -0.85200
O209        O  0.40854368  0.19232550  0.42797710    -0.82300
C210        C  0.39889895  0.17607249  0.41137881     0.98200
O211        O  0.40704490  0.16959585  0.38742873    -0.82300
O212        O  0.43354958  0.16609867  0.43976877    -0.84900
C213        C  0.44891336  0.17079585  0.45982757     1.02700
O214        O  0.46359379  0.18677459  0.45287701    -0.77700
O215        O  0.45463922  0.21255315  0.48615355    -0.77900
C216        C  0.44597440  0.22164109  0.49027159     1.02700
Cr217      Cr  0.43125520  0.21267472  0.39825927     1.93700
Cr218      Cr  0.43462495  0.17739933  0.38097323     1.93200
Cr219      Cr  0.46626812  0.21115051  0.43068416     1.39100
O220        O  0.44399975  0.20043142  0.40340190    -1.23000
O221        O  0.09944449  0.89891703  0.03365014    -0.85200
O222        O  0.13323921  0.90381194  0.00329599    -0.82300
C223        C  0.13944076  0.91771065  0.97677784     0.98200
O224        O  0.14737560  0.93447636  0.99120708    -0.82300
O225        O  0.15176333  0.96367632  0.04341224    -0.85000
C226        C  0.13662472  0.96400456  0.03610822     1.02800
O227        O  0.12082344  0.95051236  0.04892341    -0.77700
O228        O  0.09385472  0.91514948  0.08221100    -0.77900
C229        C  0.08800503  0.90293295  0.05182051     1.02700
O230        O  0.10870510  0.89366531  0.12253296    -0.85200
O231        O  0.14327381  0.90033735  0.09304687    -0.82300
C232        C  0.16003291  0.90896368  0.07868043     0.98200
O233        O  0.16559577  0.92354671  0.05517137    -0.82300
O234        O  0.16580622  0.95039853  0.11302720    -0.84900
C235        C  0.15925594  0.95865129  0.13638716     1.02700
O236        O  0.14344794  0.95722043  0.12668188    -0.77700
O237        O  0.11884659  0.92137131  0.15395448    -0.77900
C238        C  0.11171054  0.90367605  0.15673743     1.02700
Cr239      Cr  0.12204643  0.90115767  0.06377294     1.93700
Cr240      Cr  0.15587526  0.94174666  0.05236562     1.93200
Cr241      Cr  0.12012798  0.93529958  0.10043511     1.39100
O242        O  0.13259064  0.92595490  0.07213339    -1.23000
O243        O  0.21606772  0.77184508  0.10235702    -0.85200
O244        O  0.22539808  0.79706525  0.17075411    -0.82300
C245        C  0.23472345  0.81175865  0.19387607     0.98200
O246        O  0.24640754  0.82744924  0.17604234    -0.82300
O247        O  0.27645470  0.82326227  0.15279340    -0.85000
C248        C  0.28572400  0.81676138  0.13389863     1.02800
O249        O  0.28008144  0.80822347  0.09746618    -0.77700
O250        O  0.24467311  0.77570788  0.10552254    -0.77900
C251        C  0.22694241  0.76532934  0.10996932     1.02700
O252        O  0.21651946  0.79969664  0.04427930    -0.85200
O253        O  0.22051691  0.82230544  0.11596026    -0.82300
C254        C  0.23136507  0.83884981  0.10178691     0.98200
O255        O  0.24815649  0.84390416  0.09058923    -0.82300
O256        O  0.28025685  0.84168809  0.07055984    -0.84900
C257        C  0.27954378  0.83516315  0.03243929     1.02700
O258        O  0.26664248  0.81866607  0.02226453    -0.77700
O259        O  0.23243939  0.78556977  0.02570808    -0.77900
C260        C  0.22092118  0.79121197  0.01606240     1.02700
Cr261      Cr  0.22147883  0.79855950  0.10745318     1.93700
Cr262      Cr  0.26158217  0.83235706  0.12049562     1.93200
Cr263      Cr  0.25522068  0.79787084  0.06543153     1.39100
O264        O  0.24624286  0.80967923  0.09773980    -1.23000
O265        O  0.20952059  0.78133010  0.66795957    -0.85200
O266        O  0.23459946  0.78788118  0.60136212    -0.82300
C267        C  0.24081290  0.77674761  0.60949563     0.98200
O268        O  0.22992007  0.75902371  0.60642770    -0.82300
O269        O  0.19653925  0.72398480  0.59686650    -0.85000
C270        C  0.18871274  0.71870402  0.63404446     1.02800
O271        O  0.18314191  0.72861371  0.65369765    -0.77700
O272        O  0.17965358  0.75930697  0.67683616    -0.77900
C273        C  0.19551847  0.77179728  0.69285919     1.02700
O274        O  0.18441923  0.78538885  0.60905953    -0.85200
O275        O  0.20772081  0.78763802  0.53999112    -0.82300
C276        C  0.21703388  0.78330601  0.51403071     0.98200
O277        O  0.22160852  0.77130087  0.52578273    -0.82300
O278        O  0.18714195  0.73846654  0.52248481    -0.84900
C279        C  0.17025063  0.72623895  0.53215218     1.02700
O280        O  0.16401952  0.72493817  0.57103865    -0.77700
O281        O  0.16186875  0.75666921  0.59232248    -0.77900
C282        C  0.16758829  0.77408893  0.59659585     1.02700
Cr283      Cr  0.20807815  0.78360055  0.60402700     1.93700
Cr284      Cr  0.20791825  0.74896491  0.56569749     1.93200
Cr285      Cr  0.17396699  0.74363843  0.62153029     1.39100
O286        O  0.19653015  0.75866325  0.59721408    -1.23000
O287        O  0.10164750  0.88444840  0.50454193    -0.85200
O288        O  0.10761189  0.90730374  0.57568256    -0.82300
C289        C  0.09706604  0.91398067  0.56523082     0.98200
O290        O  0.07923285  0.90350939  0.56796435    -0.82300
O291        O  0.04361042  0.87061132  0.57129456    -0.85000
C292        C  0.03957007  0.86463163  0.53227476     1.02800
O293        O  0.04949240  0.85901295  0.51266780    -0.77700
O294        O  0.07997678  0.85483053  0.49183782    -0.77900
C295        C  0.09242664  0.87106009  0.47785925     1.02700
O296        O  0.10402809  0.85714654  0.55929758    -0.85200
O297        O  0.10536101  0.87788137  0.63225882    -0.82300
C298        C  0.10081992  0.88648792  0.65977956     0.98200
O299        O  0.08943559  0.89210640  0.64876485    -0.82300
O300        O  0.05581079  0.85829765  0.64497539    -0.84900
C301        C  0.04375071  0.84187588  0.63192354     1.02700
O302        O  0.04306233  0.83725145  0.59189258    -0.77700
O303        O  0.07484014  0.83473282  0.57349015    -0.77900
C304        C  0.09226618  0.84018685  0.56955642     1.02700
Cr305      Cr  0.10280010  0.88081451  0.56833317     1.93700
Cr306      Cr  0.06783027  0.88040095  0.60555828     1.93200
Cr307      Cr  0.06300810  0.84811073  0.54469123     1.39100
O308        O  0.07779118  0.86963156  0.57286091    -1.23000
O309        O  0.89068008  0.45917787  0.32271336    -0.85200
O310        O  0.87044352  0.43345842  0.25746395    -0.82300
C311        C  0.85334137  0.42690483  0.26908966     0.98200
O312        O  0.84621910  0.43754505  0.26894073    -0.82300
O313        O  0.84396697  0.47069260  0.26268204    -0.85000
C314        C  0.84844184  0.47981504  0.29848649     1.02800
O315        O  0.86476881  0.48589233  0.31431247    -0.77700
O316        O  0.89942906  0.48940775  0.32982181    -0.77900
C317        C  0.89634641  0.47379936  0.34627391     1.02700
O318        O  0.91809413  0.48367124  0.26045842    -0.85200
O319        O  0.89520448  0.46030519  0.19346380    -0.82300
C320        C  0.88088419  0.45114993  0.16900826     0.98200
O321        O  0.86433735  0.44595976  0.18337857    -0.82300
O322        O  0.86477714  0.47956674  0.18297404    -0.84900
C323        C  0.87024631  0.49663685  0.19188132     1.02700
O324        O  0.87698275  0.50346535  0.22939686    -0.77700
O325        O  0.91135215  0.50550934  0.24235425    -0.77900
C326        C  0.92330923  0.50014067  0.24649793     1.02700
Cr327      Cr  0.89256531  0.46003205  0.25814819     1.93700
Cr328      Cr  0.85652617  0.45930665  0.22707198     1.93200
Cr329      Cr  0.88749081  0.49422495  0.27707170     1.39100
O330        O  0.87882331  0.47127618  0.25430264    -1.23000
O331        O  0.10125028  0.56878151  0.17371871    -0.85200
O332        O  0.11738207  0.56272630  0.24701686    -0.82300
C333        C  0.13481574  0.57299085  0.23767280     0.98200
O334        O  0.14229450  0.59081512  0.23789899    -0.82300
O335        O  0.14558307  0.62654045  0.23818748    -0.85000
C336        C  0.14332302  0.63059618  0.19948286     1.02800
O337        O  0.12752045  0.62092162  0.18052522    -0.77700
O338        O  0.09307854  0.59016189  0.15982005    -0.77900
C339        C  0.09692764  0.57768899  0.14653585     1.02700
O340        O  0.07120043  0.56654662  0.22631171    -0.85200
O341        O  0.09015010  0.56563783  0.30095246    -0.82300
C342        C  0.10327861  0.57069397  0.32895753     0.98200
O343        O  0.12044200  0.58199366  0.31842763    -0.82300
O344        O  0.12139013  0.61586248  0.31246264    -0.84900
C345        C  0.11734386  0.62800624  0.29882805     1.02700
O346        O  0.11214937  0.62768738  0.25938531    -0.77700
O347        O  0.07765756  0.59538123  0.24152735    -0.77900
C348        C  0.06570913  0.57801522  0.23652761     1.02700
Cr349      Cr  0.09602707  0.56785285  0.23732920     1.93700
Cr350      Cr  0.13084902  0.60296189  0.27395337     1.93200
Cr351      Cr  0.10307434  0.60736590  0.21269968     1.39100
O352        O  0.10997230  0.59286398  0.24138014    -1.23000
O353        O  0.80049113  0.57534141  0.83155359    -0.85200
O354        O  0.76885680  0.54651454  0.86964328    -0.82300
C355        C  0.75889352  0.53046894  0.88723441     0.98200
O356        O  0.76614371  0.52483076  0.91594022    -0.82300
O357        O  0.79268726  0.51780362  0.87775059    -0.85000
C358        C  0.80801624  0.52007396  0.86222694     1.02800
O359        O  0.82293730  0.53613108  0.86530810    -0.77700
O360        O  0.81313555  0.55792743  0.81407925    -0.77900
C361        C  0.80497141  0.56697652  0.80280296     1.02700
O362        O  0.81481076  0.59066241  0.91885586    -0.85200
O363        O  0.78168070  0.56275663  0.95568945    -0.82300
C364        C  0.78528965  0.55570458  0.98878812     0.98200
O365        O  0.79272213  0.54549749  0.98419185    -0.82300
O366        O  0.81847378  0.53701641  0.95093381    -0.84900
C367        C  0.83430473  0.55234200  0.95470904     1.02700
O368        O  0.83904509  0.56599495  0.92847936    -0.77700
O369        O  0.83416088  0.58964190  0.87075655    -0.77900
C370        C  0.83017403  0.59888038  0.89772152     1.02700
Cr371      Cr  0.79236888  0.56781593  0.89440829     1.93700
Cr372      Cr  0.79329000  0.53288426  0.92959576     1.93200
Cr373      Cr  0.82564782  0.56186606  0.87172074     1.39100
O374        O  0.80364950  0.55418553  0.89894758    -1.23000
O375        O  0.88932249  0.77487143  0.99745164    -0.85200
O376        O  0.88049682  0.79291233  0.93361652    -0.82300
C377        C  0.89128090  0.81000591  0.94507216     0.98200
O378        O  0.90902049  0.81742052  0.94045807    -0.82300
O379        O  0.94448291  0.82097002  0.92491372    -0.85000
C380        C  0.95083553  0.81783531  0.95981391     1.02800
O381        O  0.94176837  0.80177862  0.97789397    -0.77700
O382        O  0.91153290  0.76694352  0.00033795    -0.77900
C383        C  0.89905260  0.76956129  0.01910540     1.02700
O384        O  0.88481517  0.74653728  0.93720957    -0.85200
O385        O  0.88105366  0.76712594  0.86939478    -0.82300
C386        C  0.88512092  0.78088148  0.84390400     0.98200
O387        O  0.89576197  0.79764276  0.85763805    -0.82300
O388        O  0.92914423  0.79823762  0.84871233    -0.84900
C389        C  0.94197003  0.79420133  0.85486167     1.02700
O390        O  0.94390989  0.78823794  0.89193468    -0.77700
O391        O  0.91261937  0.75343968  0.91233883    -0.77900
C392        C  0.89565227  0.74121423  0.92107574     1.02700
Cr393      Cr  0.88572899  0.77139074  0.93357957     1.93700
Cr394      Cr  0.91896070  0.80701705  0.89551601     1.93200
Cr395      Cr  0.92618906  0.77809596  0.94407926     1.39100
O396        O  0.91046644  0.78554693  0.92470884    -1.23000
O397        O  0.89902638  0.79510142  0.42746377    -0.85200
O398        O  0.87402053  0.77708557  0.49500220    -0.82300
C399        C  0.85954460  0.77151277  0.51903440     0.98200
O400        O  0.84371380  0.76776113  0.50228793    -0.82300
O401        O  0.84724070  0.80204790  0.48056970    -0.85000
C402        C  0.85324210  0.81780335  0.46183213     1.02800
O403        O  0.86099698  0.82058550  0.42444992    -0.77700
O404        O  0.89430158  0.81924100  0.43186125    -0.77900
C405        C  0.90506192  0.81237974  0.43607657     1.02700
O406        O  0.87167415  0.76782217  0.36719815    -0.85200
O407        O  0.84898366  0.74736533  0.43747418    -0.82300
C408        C  0.83212211  0.74146579  0.42488786     0.98200
O409        O  0.82656413  0.75309943  0.41730663    -0.82300
O410        O  0.82832070  0.78728539  0.39807956    -0.84900
C411        C  0.83433892  0.79257766  0.35920658     1.02700
O412        O  0.85104232  0.79686186  0.34911784    -0.77700
O413        O  0.88523664  0.79801022  0.35120907    -0.77900
C414        C  0.88018813  0.78116024  0.33997782     1.02700
Cr415      Cr  0.87251415  0.77283372  0.43107666     1.93700
Cr416      Cr  0.83821016  0.77809908  0.44753746     1.93200
Cr417      Cr  0.87206173  0.80705007  0.39185712     1.39100
O418        O  0.86084523  0.78600281  0.42359508    -1.23000
O419        O  0.77026121  0.54810087  0.36709649    -0.85200
O420        O  0.76630695  0.57651587  0.33097216    -0.82300
C421        C  0.75325758  0.56808301  0.30256411     0.98200
O422        O  0.73614121  0.55829757  0.31451669    -0.82300
O423        O  0.70532736  0.53436732  0.36467751    -0.85000
C424        C  0.70503885  0.51878957  0.36087634     1.02800
O425        O  0.71800609  0.51674066  0.37803104    -0.77700
O426        O  0.75281053  0.52648102  0.41571631    -0.77900
C427        C  0.76503702  0.53236234  0.38521234     1.02700
O428        O  0.77353133  0.56357640  0.45388104    -0.85200
O429        O  0.76721960  0.59098423  0.41871758    -0.82300
C430        C  0.75924470  0.59871373  0.39911135     0.98200
O431        O  0.74528096  0.58882735  0.37420800    -0.82300
O432        O  0.71708901  0.56311956  0.43083910    -0.84900
C433        C  0.70790903  0.54861909  0.45475779     1.02700
O434        O  0.70985595  0.53425104  0.45017648    -0.77700
O435        O  0.74527432  0.54639661  0.48319031    -0.77900
C436        C  0.76301173  0.55688149  0.48744100     1.02700
Cr437      Cr  0.76736027  0.56865577  0.39321509     1.93700
Cr438      Cr  0.72714808  0.56071757  0.37307412     1.93200
Cr439      Cr  0.73235571  0.53262982  0.42926853     1.39100
O440        O  0.74236982  0.55396844  0.39855082    -1.23000
O441        O  0.55874112  0.43819073  0.79453954    -0.85200
O442        O  0.56039895  0.47030883  0.82723767    -0.82300
C443        C  0.57320485  0.47623026  0.85660874     0.98200
O444        O  0.59052762  0.48435525  0.84574407    -0.82300
O445        O  0.62208033  0.49101983  0.79856911    -0.85000
C446        C  0.62308503  0.47609930  0.80266187     1.02800
O447        O  0.61046813  0.46062879  0.78616892    -0.77700
O448        O  0.57632216  0.43415127  0.74671437    -0.77900
C449        C  0.56385494  0.42755116  0.77666694     1.02700
O450        O  0.55535125  0.44887522  0.70549068    -0.85200
O451        O  0.55971309  0.48204605  0.73767356    -0.82300
C452        C  0.56701898  0.49819460  0.75495524     0.98200
O453        O  0.58102195  0.50355818  0.78069350    -0.82300
O454        O  0.61064055  0.50658450  0.72845410    -0.84900
C455        C  0.62070969  0.50161006  0.70695429     1.02700
O456        O  0.61890870  0.48543889  0.71293760    -0.77700
O457        O  0.58409802  0.46137017  0.67821022    -0.77900
C458        C  0.56640511  0.45335138  0.67262518     1.02700
Cr459      Cr  0.56051599  0.46072331  0.76595541     1.93700
Cr460      Cr  0.59993458  0.49468028  0.78642632     1.93200
Cr461      Cr  0.59648542  0.46114283  0.73342069     1.39100
O462        O  0.58559978  0.47210838  0.76208980    -1.23000
O463        O  0.43996836  0.56888655  0.69963684    -0.85200
O464        O  0.47081127  0.56928413  0.66467221    -0.82300
C465        C  0.47629479  0.58286579  0.63761478     0.98200
O466        O  0.48606673  0.59981896  0.65040350    -0.82300
O467        O  0.49537478  0.63057016  0.70226833    -0.85000
C468        C  0.48105494  0.63269292  0.69875448     1.02800
O469        O  0.46525446  0.62017343  0.71399914    -0.77700
O470        O  0.43715409  0.58621264  0.75019600    -0.77900
C471        C  0.43001474  0.57451258  0.71882857     1.02700
O472        O  0.44988793  0.56261628  0.78714736    -0.85200
O473        O  0.48230849  0.56556127  0.75262223    -0.82300
C474        C  0.49835921  0.57236839  0.73478657     0.98200
O475        O  0.50441000  0.58693123  0.71067402    -0.82300
O476        O  0.50998033  0.61641074  0.76777289    -0.84900
C477        C  0.50560245  0.62632486  0.79178272     1.02700
O478        O  0.48970790  0.62549263  0.78740849    -0.77700
O479        O  0.46364962  0.59064362  0.81815187    -0.77900
C480        C  0.45477849  0.57282622  0.82146766     1.02700
Cr481      Cr  0.46175179  0.56851358  0.72671061     1.93700
Cr482      Cr  0.49728598  0.60726708  0.70963739     1.93200
Cr483      Cr  0.46462666  0.60470662  0.76488857     1.39100
O484        O  0.47456089  0.59343388  0.73402220    -1.23000
O485        O  0.53579022  0.78409921  0.09202190    -0.85200
O486        O  0.55328975  0.77647483  0.15951050    -0.82300
C487        C  0.55853876  0.76717934  0.18298502     0.98200
O488        O  0.56286509  0.75569621  0.16550420    -0.82300
O489        O  0.52936926  0.72453350  0.14113950    -0.85000
C490        C  0.51364607  0.71498262  0.12189155     1.02800
O491        O  0.51070946  0.72064208  0.08576773    -0.77700
O492        O  0.51200856  0.75502289  0.09733236    -0.77900
C493        C  0.51871800  0.77260361  0.10260752     1.02700
O494        O  0.56371560  0.78499129  0.03233652    -0.85200
O495        O  0.58377521  0.78244270  0.10357424    -0.82300
C496        C  0.59009493  0.77203803  0.08984827     0.98200
O497        O  0.57853921  0.75504437  0.08015110    -0.82300
O498        O  0.54527622  0.72264789  0.05744057    -0.84900
C499        C  0.53989220  0.72383403  0.01896825     1.02700
O500        O  0.53448995  0.73554891  0.01077789    -0.77700
O501        O  0.53334270  0.76842218  0.01612871    -0.77900
C502        C  0.55031716  0.78022895  0.00519577     1.02700
Cr503      Cr  0.55822103  0.78016139  0.09597663     1.93700
Cr504      Cr  0.55341617  0.74066992  0.10922104     1.93200
Cr505      Cr  0.52420281  0.74568149  0.05517976     1.39100
O506        O  0.54526887  0.75535699  0.08683855    -1.23000
O507        O  0.78685394  0.90871497  0.05803904    -0.85200
O508        O  0.76989046  0.88193796  0.99362143    -0.82300
C509        C  0.76497322  0.86708905  0.97155032     0.98200
O510        O  0.76100459  0.85175070  0.99092701    -0.82300
O511        O  0.79500968  0.85644848  0.02088964    -0.85000
C512        C  0.81042277  0.86348376  0.04195753     1.02800
O513        O  0.81185577  0.87110532  0.07899949    -0.77700
O514        O  0.81089717  0.90375247  0.06279189    -0.77900
C515        C  0.80436042  0.91433685  0.05274019     1.02700
O516        O  0.75767991  0.88264335  0.11883422    -0.85200
O517        O  0.73923491  0.85849248  0.04965537    -0.82300
C518        C  0.73294563  0.84196099  0.06450671     0.98200
O519        O  0.74432220  0.83654245  0.07616052    -0.82300
O520        O  0.77811549  0.83918707  0.10358451    -0.84900
C521        C  0.78199885  0.84587515  0.14225474     1.02700
O522        O  0.78572770  0.86261109  0.14969361    -0.77700
O523        O  0.78751135  0.89688916  0.13912128    -0.77900
C524        C  0.77033007  0.89167845  0.14728885     1.02700
Cr525      Cr  0.76438342  0.88213105  0.05630714     1.93700
Cr526      Cr  0.77011345  0.84775364  0.04961004     1.93200
Cr527      Cr  0.79741975  0.88266532  0.10483718     1.39100
O528        O  0.77732776  0.87078481  0.07003092    -1.23000
O529        O  0.89411323  0.10625236  0.46539648    -0.85200
O530        O  0.89447257  0.13740908  0.49784076    -0.82300
C531        C  0.90833471  0.14439394  0.52458512     0.98200
O532        O  0.92518035  0.15406572  0.51077709    -0.82300
O533        O  0.95595423  0.16211359  0.45996589    -0.85000
C534        C  0.95776821  0.14776510  0.46645487     1.02800
O535        O  0.94545473  0.13175133  0.45188124    -0.77700
O536        O  0.91181758  0.10315639  0.41597033    -0.77900
C537        C  0.90013613  0.09643008  0.44741016     1.02700
O538        O  0.88784029  0.11516194  0.37664387    -0.85200
O539        O  0.89002748  0.14747649  0.40908079    -0.82300
C540        C  0.89679488  0.16371453  0.42566506     0.98200
O541        O  0.91201791  0.17070595  0.44770267    -0.82300
O542        O  0.94097626  0.17482366  0.39085461    -0.84900
C543        C  0.95065031  0.16995882  0.36739034     1.02700
O544        O  0.95083654  0.15485697  0.37582118    -0.77700
O545        O  0.91607140  0.12826586  0.34607266    -0.77900
C546        C  0.89823608  0.11969497  0.34256501     1.02700
Cr547      Cr  0.89358741  0.12758720  0.43651262     1.93700
Cr548      Cr  0.93241466  0.16370770  0.45049034     1.93200
Cr549      Cr  0.93011748  0.13023374  0.39992441     1.39100
O550        O  0.91858928  0.14046972  0.42886369    -1.23000
O551        O  0.76619753  0.23042402  0.37161585    -0.85200
O552        O  0.79729897  0.23191738  0.33419378    -0.82300
C553        C  0.80313288  0.24581894  0.30782773     0.98200
O554        O  0.81201270  0.26268950  0.32184599    -0.82300
O555        O  0.82199301  0.29298114  0.37812832    -0.85000
C556        C  0.80785035  0.29543985  0.37690536     1.02800
O557        O  0.79184801  0.28255435  0.39036424    -0.77700
O558        O  0.76344440  0.24778100  0.42250120    -0.77900
C559        C  0.75635082  0.23618700  0.39088487     1.02700
O560        O  0.77636773  0.22299481  0.45728683    -0.85200
O561        O  0.80913297  0.22716023  0.42131354    -0.82300
C562        C  0.82516735  0.23458095  0.40308472     0.98200
O563        O  0.83055411  0.24887030  0.37849116    -0.82300
O564        O  0.83591838  0.27654831  0.43990426    -0.84900
C565        C  0.83166780  0.28568850  0.46671963     1.02700
O566        O  0.81603755  0.28552613  0.46321677    -0.77700
O567        O  0.78936463  0.25055729  0.49071586    -0.77900
C568        C  0.78055988  0.23272304  0.49229421     1.02700
Cr569      Cr  0.78823910  0.23006170  0.39690013     1.93700
Cr570      Cr  0.82338472  0.26913866  0.38138036     1.93200
Cr571      Cr  0.79085609  0.26570316  0.43886489     1.39100
O572        O  0.80072581  0.25489995  0.40583998    -1.23000
O573        O  0.11132065  0.22009796  0.07338434    -0.85200
O574        O  0.10550684  0.23890792  0.00568675    -0.82300
C575        C  0.09605729  0.24345457  0.98071345     0.98200
O576        O  0.08400486  0.24748545  0.99622292    -0.82300
O577        O  0.05201867  0.21358821  0.01703418    -0.85000
C578        C  0.04243529  0.19755231  0.03490542     1.02800
O579        O  0.04747111  0.19429815  0.07147086    -0.77700
O580        O  0.08260971  0.19624751  0.06322359    -0.77900
C581        C  0.10042766  0.20323397  0.06078576     1.02700
O582        O  0.11027538  0.24638099  0.13458674    -0.85200
O583        O  0.10984847  0.26805100  0.06490889    -0.82300
C584        C  0.09874832  0.27374624  0.07710005     0.98200
O585        O  0.08123178  0.26221988  0.08129777    -0.82300
O586        O  0.04880403  0.22856539  0.10047118    -0.84900
C587        C  0.04943630  0.22297626  0.13900593     1.02700
O588        O  0.06080938  0.21715655  0.14784440    -0.77700
O589        O  0.09373388  0.21589218  0.14612376    -0.77900
C590        C  0.10477100  0.23243628  0.16033294     1.02700
Cr591      Cr  0.10730980  0.24240490  0.07000873     1.93700
Cr592      Cr  0.06775627  0.23735213  0.05071207     1.93200
Cr593      Cr  0.07194683  0.20754441  0.10453335     1.39100
O594        O  0.08218853  0.22911202  0.07483493    -1.23000
O595        O  0.23508013  0.47033416  0.09318030    -0.85200
O596        O  0.21201592  0.45162136  0.16281014    -0.82300
C597        C  0.19858723  0.44726706  0.18955966     0.98200
O598        O  0.18202889  0.44254837  0.17610590    -0.82300
O599        O  0.18404610  0.47641039  0.15742435    -0.85000
C600        C  0.18920453  0.49210910  0.13916813     1.02800
O601        O  0.19640246  0.49518003  0.10114039    -0.77700
O602        O  0.23018423  0.49412716  0.10300828    -0.77900
C603        C  0.24115780  0.48737876  0.10427568     1.02700
O604        O  0.20677651  0.44355193  0.03437536    -0.85200
O605        O  0.18572502  0.42203937  0.10523883    -0.82300
C606        C  0.16854223  0.41611608  0.09551571     0.98200
O607        O  0.16231741  0.42745364  0.09355811    -0.82300
O608        O  0.16309858  0.46107535  0.07704480    -0.84900
C609        C  0.16821847  0.46629429  0.03774852     1.02700
O610        O  0.18498815  0.47185612  0.02520175    -0.77700
O611        O  0.21957264  0.47385993  0.02053092    -0.77900
C612        C  0.21452273  0.45722589  0.00770427     1.02700
Cr613      Cr  0.20886103  0.44780827  0.09868681     1.93700
Cr614      Cr  0.17467429  0.45249033  0.12370602     1.93200
Cr615      Cr  0.20704816  0.48211752  0.06514980     1.39100
O616        O  0.19671090  0.46074669  0.09585639    -1.23000
O617        O  0.87050872  0.43984610  0.78401215    -0.85200
O618        O  0.89993254  0.43848620  0.82203711    -0.82300
C619        C  0.89189686  0.42473578  0.84893180     0.98200
O620        O  0.88456832  0.40789960  0.83531889    -0.82300
O621        O  0.86267362  0.37724050  0.78322797    -0.85000
C622        C  0.84644886  0.37564419  0.78737999     1.02800
O623        O  0.84348363  0.38820962  0.77151331    -0.77700
O624        O  0.85005888  0.42213672  0.73403968    -0.77900
C625        C  0.85502152  0.43433827  0.76425767     1.02700
O626        O  0.88767403  0.44563749  0.69772586    -0.85200
O627        O  0.91659953  0.44238823  0.73494900    -0.82300
C628        C  0.92516507  0.43487965  0.75266859     0.98200
O629        O  0.91607588  0.42034085  0.77650483    -0.82300
O630        O  0.89209006  0.39171193  0.71806362    -0.84900
C631        C  0.87805088  0.38239425  0.69277903     1.02700
O632        O  0.86275293  0.38266694  0.69838407    -0.77700
O633        O  0.87196975  0.41753047  0.66709156    -0.77900
C634        C  0.88163029  0.43533419  0.66358035     1.02700
Cr635      Cr  0.89270619  0.43961278  0.75898400     1.93700
Cr636      Cr  0.88832606  0.40048178  0.77626997     1.93200
Cr637      Cr  0.85871073  0.40352714  0.72046111     1.39100
O638        O  0.87999574  0.41466428  0.75164069    -1.23000
O639        O  0.12052902  0.57119741  0.70339663    -0.85200
O640        O  0.09082764  0.53861662  0.67237511    -0.82300
C641        C  0.09842137  0.53306720  0.64404349     0.98200
O642        O  0.10721375  0.52475702  0.65589155    -0.82300
O643        O  0.13187395  0.51821529  0.70415250    -0.85000
C644        C  0.14786685  0.53304814  0.69842331     1.02800
O645        O  0.15036070  0.54882958  0.71151920    -0.77700
O646        O  0.14348003  0.57618343  0.74822137    -0.77900
C647        C  0.13682834  0.58208930  0.71857448     1.02700
O648        O  0.10678501  0.56100490  0.79298801    -0.85200
O649        O  0.07776839  0.52726629  0.76160610    -0.82300
C650        C  0.06891991  0.51130003  0.74332893     0.98200
O651        O  0.07795054  0.50568706  0.71978442    -0.82300
O652        O  0.10492863  0.50368989  0.77416385    -0.84900
C653        C  0.12031445  0.50923464  0.79494599     1.02700
O654        O  0.13447255  0.52565810  0.78848757    -0.77700
O655        O  0.12498683  0.55093615  0.82089864    -0.77900
C656        C  0.11426615  0.55780982  0.82600587     1.02700
Cr657      Cr  0.10013706  0.54865824  0.73320386     1.93700
Cr658      Cr  0.10599970  0.51484763  0.71543224     1.93200
Cr659      Cr  0.13656100  0.54955831  0.76498603     1.39100
O660        O  0.11417842  0.53773177  0.73818869    -1.23000
O661        O  0.76925395  0.90007383  0.49414036    -0.85200
O662        O  0.78660077  0.89237172  0.56192238    -0.82300
C663        C  0.80405814  0.90312083  0.55348509     0.98200
O664        O  0.81163688  0.92087241  0.55766251    -0.82300
O665        O  0.81460595  0.95633186  0.56581872    -0.85000
C666        C  0.81199669  0.96148714  0.52854889     1.02800
O667        O  0.79642551  0.95170534  0.50888189    -0.77700
O668        O  0.76113665  0.92187913  0.48734712    -0.77900
C669        C  0.76411059  0.90938408  0.47041963     1.02700
O670        O  0.74029669  0.89685487  0.55262898    -0.85200
O671        O  0.76005535  0.89333502  0.62231522    -0.82300
C672        C  0.77332721  0.89753245  0.64943631     0.98200
O673        O  0.79035395  0.90915254  0.63846749    -0.82300
O674        O  0.79045937  0.94287672  0.64082766    -0.84900
C675        C  0.78655330  0.95552996  0.63051120     1.02700
O676        O  0.78220804  0.95681359  0.59118935    -0.77700
O677        O  0.74762987  0.92553228  0.57263762    -0.77900
C678        C  0.73539530  0.90842418  0.56604811     1.02700
Cr679      Cr  0.76510466  0.89754348  0.55837957     1.93700
Cr680      Cr  0.80020098  0.93157915  0.59800611     1.93200
Cr681      Cr  0.77235861  0.93774749  0.54187213     1.39100
O682        O  0.77923294  0.92235877  0.56599178    -1.23000
O683        O  0.57094588  0.80940371  0.65759334    -0.85200
O684        O  0.54119362  0.77680519  0.62526685    -0.82300
C685        C  0.52596057  0.76583737  0.60562639     0.98200
O686        O  0.52104832  0.77155863  0.57217035    -0.82300
O687        O  0.51128640  0.79723035  0.60487125    -0.85000
C688        C  0.51346129  0.81241052  0.62112769     1.02800
O689        O  0.52932776  0.82768535  0.61884739    -0.77700
O690        O  0.55349454  0.82221358  0.67119271    -0.77900
C691        C  0.56294160  0.81484259  0.68489869     1.02700
O692        O  0.58510175  0.82015256  0.56939437    -0.85200
O693        O  0.55719746  0.78592111  0.53774108    -0.82300
C694        C  0.55242245  0.79090614  0.50290357     0.98200
O695        O  0.54238406  0.79857890  0.50450948    -0.82300
O696        O  0.52970945  0.82197225  0.53199360    -0.84900
C697        C  0.54423655  0.83824640  0.52687396     1.02700
O698        O  0.55833334  0.84392277  0.55235636    -0.77700
O699        O  0.58387709  0.84172081  0.60930632    -0.77900
C700        C  0.59332162  0.83646828  0.58605390     1.02700
Cr701      Cr  0.56251267  0.79888229  0.59678356     1.93700
Cr702      Cr  0.52767990  0.79811679  0.55591656     1.93200
Cr703      Cr  0.55577957  0.83223659  0.61113100     1.39100
O704        O  0.54862529  0.80972360  0.58803281    -1.23000
O705        O  0.55887451  0.10114107  0.32621495    -0.85200
O706        O  0.55634383  0.13008228  0.29053551    -0.82300
C707        C  0.56195946  0.14587069  0.27263537     0.98200
O708        O  0.57415059  0.15147571  0.24204650    -0.82300
O709        O  0.60893737  0.15864205  0.27560203    -0.85000
C710        C  0.62195210  0.15592720  0.28959153     1.02800
O711        O  0.62018683  0.13965791  0.28663180    -0.77700
O712        O  0.58941505  0.11781408  0.34022034    -0.77900
C713        C  0.57238849  0.10930833  0.35357857     1.02700
O714        O  0.55524156  0.08540393  0.23898794    -0.85200
O715        O  0.55043686  0.11365260  0.20379676    -0.82300
C716        C  0.56068119  0.12048538  0.16983992     0.98200
O717        O  0.57848022  0.13016274  0.17279872    -0.82300
O718        O  0.61343460  0.13909192  0.20126664    -0.84900
C719        C  0.61378174  0.12382534  0.19620330     1.02700
O720        O  0.60509262  0.11010843  0.22255492    -0.77700
O721        O  0.57707753  0.08624738  0.28191090    -0.77900
C722        C  0.56220398  0.07687847  0.25917968     1.02700
Cr723      Cr  0.55721962  0.10862676  0.26409202     1.93700
Cr724      Cr  0.59289114  0.14322711  0.22562706     1.93200
Cr725      Cr  0.59677784  0.11400796  0.28092801     1.39100
O726        O  0.58220786  0.12195726  0.25662751    -1.23000
O727        O  0.46178346  0.90820370  0.17417278    -0.85200
O728        O  0.43006382  0.87771075  0.20757544    -0.82300
C729        C  0.41964595  0.86257483  0.22814722     0.98200
O730        O  0.42616139  0.85830177  0.26122744    -0.82300
O731        O  0.45547462  0.85202555  0.23389148    -0.85000
C732        C  0.47181594  0.85569583  0.22150651     1.02800
O733        O  0.48566025  0.87249405  0.22383979    -0.77700
O734        O  0.47768673  0.89333695  0.16552662    -0.77900
C735        C  0.46918038  0.90122364  0.14912360     1.02700
O736        O  0.47069531  0.92452245  0.26120342    -0.85200
O737        O  0.43750389  0.89534164  0.29335802    -0.82300
C738        C  0.44253731  0.89148598  0.32938073     0.98200
O739        O  0.45078920  0.88196954  0.33028643    -0.82300
O740        O  0.47777413  0.87327308  0.30896261    -0.84900
C741        C  0.49329044  0.88881319  0.31363005     1.02700
O742        O  0.49800298  0.90228707  0.28684029    -0.77700
O743        O  0.49394674  0.92499234  0.22464483    -0.77900
C744        C  0.48717127  0.93369489  0.24542851     1.02700
Cr745      Cr  0.45098804  0.90045077  0.23508646     1.93700
Cr746      Cr  0.45321635  0.86790421  0.28073194     1.93200
Cr747      Cr  0.48699730  0.89761197  0.22683379     1.39100
O748        O  0.46366446  0.88861037  0.24754633    -1.23000
O749        O  0.86267434  0.10918226  0.99670820    -0.85200
O750        O  0.89578151  0.11291712  0.96572650    -0.82300
C751        C  0.90674350  0.10795978  0.94896758     0.98200
O752        O  0.90086436  0.09576146  0.91842465    -0.82300
O753        O  0.87435826  0.06113049  0.95490835    -0.85000
C754        C  0.85876647  0.04804217  0.96978741     1.02800
O755        O  0.84355632  0.04838064  0.96352184    -0.77700
O756        O  0.84923649  0.07896595  0.01279549    -0.77900
C757        C  0.85735388  0.09608637  0.02507609     1.02700
O758        O  0.85149664  0.11065721  0.90683555    -0.85200
O759        O  0.88563118  0.11650743  0.87630385    -0.82300
C760        C  0.88176107  0.10588221  0.84290992     0.98200
O761        O  0.87457144  0.08825577  0.84780647    -0.82300
O762        O  0.85041660  0.05307833  0.87921065    -0.84900
C763        C  0.83443736  0.05153862  0.87071310     1.02700
O764        O  0.82861782  0.06063951  0.89330688    -0.77700
O765        O  0.82997108  0.08872075  0.94853296    -0.77900
C766        C  0.83513755  0.10282640  0.92342149     1.02700
Cr767      Cr  0.87305311  0.11037199  0.93593087     1.93700
Cr768      Cr  0.87425728  0.07541740  0.90245508     1.93200
Cr769      Cr  0.83949988  0.07033120  0.95279275     1.39100
O770        O  0.86238357  0.08545554  0.93053966    -1.23000
O771        O  0.76414290  0.19874722  0.83360840    -0.85200
O772        O  0.76857363  0.23161462  0.86799913    -0.82300
C773        C  0.76312996  0.24209210  0.88525960     0.98200
O774        O  0.75143623  0.23605211  0.91681588    -0.82300
O775        O  0.71569132  0.20805362  0.88842868    -0.85000
C776        C  0.70270093  0.19212051  0.87477183     1.02800
O777        O  0.70407106  0.17761248  0.88122070    -0.77700
O778        O  0.73316661  0.18481523  0.82363440    -0.77900
C779        C  0.74984323  0.19255569  0.80823771     1.02700
O780        O  0.76922281  0.18777727  0.92127599    -0.85200
O781        O  0.77600870  0.22186995  0.95439846    -0.82300
C782        C  0.76657899  0.21907709  0.98948028     0.98200
O783        O  0.74883349  0.21216480  0.98838421    -0.82300
O784        O  0.71276624  0.18574432  0.96542094    -0.84900
C785        C  0.71171675  0.16982579  0.97103069     1.02700
O786        O  0.71982969  0.16411325  0.94467029    -0.77700
O787        O  0.74612701  0.16635474  0.88197195    -0.77900
C788        C  0.76102705  0.17151930  0.90410444     1.02700
Cr789      Cr  0.76745293  0.20911297  0.89527262     1.93700
Cr790      Cr  0.73298786  0.20965718  0.93704543     1.93200
Cr791      Cr  0.72711209  0.17506686  0.88461690     1.39100
O792        O  0.74263556  0.19808855  0.90584108    -1.23000
C793        C  0.81446321  0.13333887  0.88358542    -0.22300
C794        C  0.79906848  0.12745825  0.91230035     0.09600
C795        C  0.79451667  0.11244622  0.94171123     0.10000
C796        C  0.80610041  0.10423761  0.94322981    -0.17300
C797        C  0.82232221  0.11078683  0.91625192    -0.27700
C798        C  0.82622151  0.12532475  0.88513573     0.18400
C799        C  0.78871075  0.13810034  0.91261357     0.12300
C800        C  0.77775220  0.10547457  0.97231083    -0.12000
H801        H  0.80274531  0.09303127  0.96680833     0.12600
C802        C  0.84279992  0.13284302  0.85377245    -0.22900
H803        H  0.81764846  0.14476565  0.86075851     0.08200
C804        C  0.79633492  0.15578555  0.93395089     0.04600
C805        C  0.78667699  0.16596127  0.93158551    -0.20100
C806        C  0.76957008  0.15905311  0.90789972    -0.12400
C807        C  0.76174208  0.14094526  0.88721433     0.13300
C808        C  0.77145253  0.13076944  0.89005616    -0.22800
C809        C  0.81476715  0.16397386  0.95909353    -0.05900
H810        H  0.79281860  0.17962463  0.94781039     0.14800
C811        C  0.74338324  0.13213534  0.86155884    -0.16100
H812        H  0.76574825  0.11711786  0.87388106     0.09100
H813        H  0.85633272  0.14018340  0.87243538     0.07000
H814        H  0.84285029  0.14333661  0.83043604     0.08200
H815        H  0.84209505  0.12103070  0.83410157     0.07200
H816        H  0.76445689  0.10012225  0.95294760     0.02100
H817        H  0.77952465  0.11726920  0.99378479     0.02600
H818        H  0.77627630  0.09375407  0.99362251     0.06100
H819        H  0.81860388  0.17780588  0.97446359     0.05100
H820        H  0.82650095  0.16629937  0.93662216    -0.00700
H821        H  0.81346454  0.15402172  0.98555372     0.00800
H822        H  0.73948351  0.11788102  0.84865365     0.04500
H823        H  0.74482144  0.14116579  0.83288204     0.06400
H824        H  0.73156875  0.13035470  0.88308021     0.07300
C825        C  0.68573147  0.15400361  0.07965381    -0.22300
C826        C  0.67003704  0.13655663  0.06788397     0.09600
C827        C  0.66943171  0.12889889  0.02588595     0.10000
C828        C  0.68430552  0.13935762  0.99595171    -0.17300
C829        C  0.69941855  0.15746723  0.00683380    -0.27700
C830        C  0.70041408  0.16451677  0.04992861     0.18400
C831        C  0.65344713  0.12852486  0.09788202     0.12300
C832        C  0.65288624  0.11001842  0.01230696    -0.12000
H833        H  0.68344632  0.13396438  0.96295710     0.12600
C834        C  0.71652894  0.18315740  0.06587334    -0.22900
H835        H  0.68610523  0.15993391  0.11181269     0.08200
C836        C  0.65414988  0.12191280  0.14035039     0.04600
C837        C  0.64001163  0.11891621  0.17114633    -0.20100
C838        C  0.62561208  0.12293744  0.16059223    -0.12400
C839        C  0.62423000  0.12829874  0.11717237     0.13300
C840        C  0.63814034  0.13095296  0.08636001    -0.22800
C841        C  0.67009769  0.11859719  0.15349148    -0.05900
H842        H  0.64093836  0.11466855  0.20438093     0.14800
C843        C  0.60830311  0.13153647  0.10322229    -0.16100
H844        H  0.63776584  0.13617733  0.05383238     0.09100
H845        H  0.72286641  0.18082843  0.09584794     0.07000
H846        H  0.71119706  0.19294774  0.07388219     0.08200
H847        H  0.72791755  0.18991086  0.04139338     0.07200
H848        H  0.63954489  0.11059139  0.01249827     0.02100
H849        H  0.65144088  0.09885992  0.03547669     0.02600
H850        H  0.65484484  0.10596370  0.97869725     0.06100
H851        H  0.66819078  0.11295148  0.18746164     0.05100
H852        H  0.68392478  0.13207996  0.15214152    -0.00700
H853        H  0.67053829  0.10816081  0.13080273     0.00800
H854        H  0.60924901  0.14384117  0.12105388     0.04500
H855        H  0.59439107  0.11861945  0.11000597     0.06400
H856        H  0.60891422  0.13463184  0.06753611     0.07300
C857        C  0.54185026  0.02471089  0.28946432    -0.22300
C858        C  0.53261749  0.01583674  0.25039006     0.09600
C859        C  0.53326011  0.02694860  0.21424969     0.10000
C860        C  0.54333005  0.04681208  0.21798845    -0.17300
C861        C  0.55245139  0.05585326  0.25735969    -0.27700
C862        C  0.55128502  0.04451218  0.29404657     0.18400
C863        C  0.52124684  0.99484009  0.24937394     0.12300
C864        C  0.52326228  0.01783082  0.17187925    -0.12000
H865        H  0.54395844  0.05534790  0.19002098     0.12600
C866        C  0.55845768  0.05229369  0.33945573    -0.22900
H867        H  0.54089719  0.01601407  0.31737725     0.08200
C868        C  0.52973093  0.98368131  0.24229164     0.04600
C869        C  0.51828833  0.96382942  0.24201709    -0.20100
C870        C  0.49851640  0.95477524  0.24928134    -0.12400
C871        C  0.49015084  0.96615776  0.25761850     0.13300
C872        C  0.50166709  0.98601793  0.25726853    -0.22800
C873        C  0.55083604  0.99275212  0.23473787    -0.05900
H874        H  0.52489030  0.95534103  0.23603791     0.14800
C875        C  0.46914990  0.95775129  0.26612976    -0.16100
H876        H  0.49538917  0.99480956  0.26324882     0.09100
H877        H  0.57059321  0.05026574  0.34792559     0.07000
H878        H  0.54688977  0.04446295  0.36373864     0.08200
H879        H  0.56281981  0.06739373  0.34353832     0.07200
H880        H  0.50775243  0.00874022  0.17784745     0.02100
H881        H  0.52891731  0.00897727  0.15849235     0.02600
H882        H  0.52532754  0.02858207  0.14675160     0.06100
H883        H  0.55517323  0.98198336  0.22935212     0.05100
H884        H  0.55866722  0.00139290  0.26379297    -0.00700
H885        H  0.55498056  0.00204489  0.20533187     0.00800
H886        H  0.46505496  0.94908114  0.29657113     0.04500
H887        H  0.46083656  0.94886544  0.23779582     0.06400
H888        H  0.46525870  0.96888992  0.27077177     0.07300
C889        C  0.53202000  0.85586388  0.42351517    -0.22300
C890        C  0.53680502  0.87423241  0.43603881     0.09600
C891        C  0.54597081  0.88151994  0.47665594     0.10000
C892        C  0.54960423  0.86989164  0.50443824    -0.17300
C893        C  0.54377208  0.85101750  0.49288299    -0.27700
C894        C  0.53541023  0.84419151  0.45103666     0.18400
C895        C  0.52921420  0.88385167  0.40840708     0.12300
C896        C  0.55146113  0.90129914  0.49100979    -0.12000
H897        H  0.55597327  0.87517920  0.53638098     0.12600
C898        C  0.52963111  0.82469647  0.43384997    -0.22900
H899        H  0.52485646  0.85027883  0.39237491     0.08200
C900        C  0.53572350  0.88968230  0.36504351     0.04600
C901        C  0.52442514  0.89305096  0.33564789    -0.20100
C902        C  0.50660078  0.89023437  0.34844616    -0.12400
C903        C  0.50088200  0.88588291  0.39289054     0.13300
C904        C  0.51233111  0.88286899  0.42228512    -0.22800
C905        C  0.55417100  0.89156992  0.34939165    -0.05900
H906        H  0.52884254  0.89644729  0.30164245     0.14800
C907        C  0.48261546  0.88379291  0.41035747    -0.16100
H908        H  0.50731764  0.87832906  0.45555392     0.09100
H909        H  0.53626036  0.82594881  0.40118731     0.07000
H910        H  0.51392156  0.81630742  0.43016468     0.08200
H911        H  0.53424628  0.81686282  0.45508181     0.07200
H912        H  0.53859713  0.90266775  0.49374095     0.02100
H913        H  0.56133701  0.91170846  0.46658035     0.02600
H914        H  0.55867180  0.90483398  0.52348335     0.06100
H915        H  0.55723868  0.89645528  0.31473350     0.05100
H916        H  0.55356954  0.87769542  0.35144344    -0.00700
H917        H  0.56604220  0.90206778  0.37015849     0.00800
H918        H  0.47318312  0.86902780  0.42192938     0.04500
H919        H  0.48577191  0.89366187  0.43840451     0.06400
H920        H  0.47493920  0.88718193  0.38549261     0.07300
C921        C  0.79458765  0.00086878  0.68797368    -0.22300
C922        C  0.79699503  0.99692628  0.73152015     0.09600
C923        C  0.79378291  0.97872402  0.74234228     0.10000
C924        C  0.78928339  0.96523756  0.70896936    -0.17300
C925        C  0.78823283  0.96951101  0.66459804    -0.27700
C926        C  0.79041575  0.98752318  0.65422348     0.18400
C927        C  0.80571387  0.01271947  0.76389890     0.12300
C928        C  0.79605267  0.97381662  0.78883925    -0.12000
H929        H  0.78731815  0.95146128  0.71756696     0.12600
C930        C  0.78944371  0.99336667  0.60773383    -0.22900
H931        H  0.79706612  0.01489561  0.68005116     0.08200
C932        C  0.82542463  0.02581029  0.76267823     0.04600
C933        C  0.83386998  0.03884047  0.79704570    -0.20100
C934        C  0.82330270  0.03901457  0.83347510    -0.12400
C935        C  0.80331493  0.02627776  0.83393991     0.13300
C936        C  0.79480011  0.01350121  0.79869730    -0.22800
C937        C  0.83778845  0.02550001  0.72609867    -0.05900
H938        H  0.84908938  0.04863523  0.79611699     0.14800
C939        C  0.79054402  0.02465315  0.87162651    -0.16100
H940        H  0.77964777  0.00336835  0.79950401     0.09100
H941        H  0.80063031  0.99305062  0.58743244     0.07000
H942        H  0.79180298  0.00800655  0.60611445     0.08200
H943        H  0.77517098  0.98369958  0.59361990     0.07200
H944        H  0.78573212  0.97497409  0.81060240     0.02100
H945        H  0.81073590  0.98367953  0.80054201     0.02600
H946        H  0.79345109  0.95910828  0.79146644     0.06100
H947        H  0.85300035  0.03635972  0.73095661     0.05100
H948        H  0.83319707  0.02847068  0.69423019    -0.00700
H949        H  0.83667507  0.01136548  0.72464605     0.00800
H950        H  0.77985168  0.02832303  0.86000780     0.04500
H951        H  0.79813543  0.03378794  0.89995606     0.06400
H952        H  0.78295061  0.00980076  0.88384115     0.07300
C953        C  0.68516737  0.90004603  0.55680197    -0.22300
C954        C  0.67529804  0.88351849  0.58204904     0.09600
C955        C  0.68541777  0.87639949  0.60502455     0.10000
C956        C  0.70516735  0.88535678  0.60014267    -0.17300
C957        C  0.71507327  0.90145262  0.57353669    -0.27700
C958        C  0.70501783  0.90916783  0.55211615     0.18400
C959        C  0.65430234  0.87273088  0.58070578     0.12300
C960        C  0.67534745  0.85921899  0.63426617    -0.12000
H961        H  0.71289990  0.87950165  0.61636287     0.12600
C962        C  0.71437333  0.92616661  0.52209035    -0.22900
H963        H  0.67724639  0.90539115  0.53919615     0.08200
C964        C  0.64321237  0.87740224  0.60763078     0.04600
C965        C  0.62335945  0.86565344  0.60742702    -0.20100
C966        C  0.61429351  0.84914997  0.58121954    -0.12400
C967        C  0.62565808  0.84487032  0.55321329     0.13300
C968        C  0.64546763  0.85684430  0.55325560    -0.22800
C969        C  0.65238932  0.89449397  0.63732191    -0.05900
H970        H  0.61496398  0.86917092  0.62893586     0.14800
C971        C  0.61737795  0.82775312  0.52341482    -0.16100
H972        H  0.65427732  0.85352572  0.53259298     0.09100
H973        H  0.71209076  0.93757462  0.53523970     0.07000
H974        H  0.70786078  0.92209856  0.48892186     0.08200
H975        H  0.72984935  0.93201931  0.51806343     0.07200
H976        H  0.66521807  0.84667675  0.61469409     0.02100
H977        H  0.66742471  0.86191706  0.66028927     0.02600
H978        H  0.68550189  0.85581848  0.65049916     0.06100
H979        H  0.64166589  0.89603383  0.65669090     0.05100
H980        H  0.66062606  0.90754118  0.61737369    -0.00700
H981        H  0.66213520  0.89314449  0.66064745     0.00800
H982        H  0.62845691  0.82736160  0.50282081     0.04500
H983        H  0.60683437  0.82807122  0.50088661     0.06400
H984        H  0.61056997  0.81453188  0.54321445     0.07300
C985        C  0.97638431  0.46284027  0.71056580    -0.22300
C986        C  0.98651441  0.46408856  0.74889029     0.09600
C987        C  0.97645871  0.45511446  0.78758282     0.10000
C988        C  0.95646353  0.44497415  0.78696866    -0.17300
C989        C  0.94619252  0.44398794  0.74889450    -0.27700
C990        C  0.95637036  0.45276909  0.70983277     0.18400
C991        C  0.00762182  0.47580241  0.74832203     0.12300
C992        C  0.98679067  0.45695456  0.83003509    -0.12000
H993        H  0.94879634  0.43844499  0.81701230     0.12600
C994        C  0.94683325  0.45146110  0.66644047    -0.22900
H995        H  0.98417362  0.46976475  0.68095413     0.08200
C996        C  0.01929223  0.46775173  0.74243621     0.04600
C997        C  0.03920402  0.47959661  0.74255007    -0.20100
C998        C  0.04779033  0.49941662  0.74711797    -0.12400
C999        C  0.03588214  0.50746233  0.75105312     0.13300
C1000       C  0.01602598  0.49550338  0.75236104    -0.22800
C1001       C  0.01073726  0.44678150  0.73437718    -0.05900
H1002       H  0.04812228  0.47334259  0.73823977     0.14800
C1003       C  0.04373648  0.52860980  0.75126669    -0.16100
H1004       H  0.00689965  0.50157436  0.75572667     0.09100
H1005       H  0.95255007  0.44586836  0.64107617     0.07000
H1006       H  0.94992200  0.46581278  0.65628563     0.08200
H1007       H  0.93123805  0.44179577  0.66701551     0.07200
H1008       H  0.99544524  0.47215814  0.83926469     0.02100
H1009       H  0.99631170  0.45098476  0.82637718     0.02600
H1010       H  0.97675512  0.44931937  0.85735022     0.06100
H1011       H  0.02186798  0.44286301  0.72959761     0.05100
H1012       H  0.00178951  0.44266689  0.70433777    -0.00700
H1013       H  0.00177957  0.43854122  0.76260627     0.00800
H1014       H  0.03225481  0.53220976  0.75125180     0.04500
H1015       H  0.05259490  0.53508413  0.72154824     0.06400
H1016       H  0.05235246  0.53497715  0.78111882     0.07300
C1017       C  0.78901109  0.28763105  0.81778851    -0.22300
C1018       C  0.79121038  0.30115437  0.84918723     0.09600
C1019       C  0.78204091  0.29512657  0.89016340     0.10000
C1020       C  0.77240779  0.27569114  0.90045313    -0.17300
C1021       C  0.77141207  0.26209971  0.87030235    -0.27700
C1022       C  0.77904036  0.26815005  0.82750847     0.18400
C1023       C  0.80450905  0.32144749  0.83930381     0.12300
C1024       C  0.78234099  0.30918208  0.92279231    -0.12000
H1025       H  0.76612146  0.27118948  0.93276061     0.12600
C1026       C  0.77655437  0.25431188  0.79158916    -0.22900
H1027       H  0.79566950  0.29242586  0.78589432     0.08200
C1028       C  0.82359176  0.33037937  0.85356315     0.04600
C1029       C  0.83650452  0.34871260  0.83866105    -0.20100
C1030       C  0.83104807  0.35820135  0.80859961    -0.12400
C1031       C  0.81167935  0.34949060  0.79571650     0.13300
C1032       C  0.79865452  0.33120113  0.81137481    -0.22800
C1033       C  0.83067543  0.32014016  0.88226309    -0.05900
H1034       H  0.85123554  0.35530643  0.84891831     0.14800
C1035       C  0.80478040  0.35879088  0.76369697    -0.16100
H1036       H  0.78399131  0.32412381  0.80037389     0.09100
H1037       H  0.78459519  0.24702316  0.79943817     0.07000
H1038       H  0.78191468  0.26154598  0.75949180     0.08200
H1039       H  0.76121551  0.24370720  0.78755684     0.07200
H1040       H  0.77572855  0.31688626  0.90780258     0.02100
H1041       H  0.79714599  0.31962222  0.93238767     0.02600
H1042       H  0.77428795  0.30205916  0.95308283     0.06100
H1043       H  0.84609414  0.32909500  0.88957238     0.05100
H1044       H  0.82843658  0.30709772  0.86538306    -0.00700
H1045       H  0.82294611  0.31614199  0.91399254     0.00800
H1046       H  0.81259782  0.36153405  0.73214707     0.04500
H1047       H  0.80701284  0.37235020  0.77761515     0.06400
H1048       H  0.78936046  0.34969098  0.75656850     0.07300
C1049       C  0.13969428  0.48305900  0.97322772    -0.22300
C1050       C  0.13533801  0.47179116  0.93540724     0.09600
C1051       C  0.13978191  0.45714116  0.93393910     0.10000
C1052       C  0.14957804  0.45490456  0.96927981    -0.17300
C1053       C  0.15482939  0.46685504  0.00609500    -0.27700
C1054       C  0.14932961  0.48076502  0.00871464     0.18400
C1055       C  0.12935684  0.47791109  0.89560870     0.12300
C1056       C  0.13449506  0.44411981  0.89482338    -0.12000
H1057       H  0.15379451  0.44424629  0.96750478     0.12600
C1058       C  0.15436988  0.49422013  0.04697232    -0.22900
H1059       H  0.13650739  0.49447781  0.97405683     0.08200
C1060       C  0.11159529  0.47701184  0.89238519     0.04600
C1061       C  0.10837975  0.48641892  0.85756220    -0.20100
C1062       C  0.12260001  0.49665239  0.82621071    -0.12400
C1063       C  0.13967976  0.49598378  0.82738571     0.13300
C1064       C  0.14290265  0.48685744  0.86239909    -0.22800
C1065       C  0.09617686  0.46625066  0.92574114    -0.05900
H1066       H  0.09512701  0.48653573  0.85600901     0.14800
C1067       C  0.15456693  0.50469771  0.79172473    -0.16100
H1068       H  0.15644558  0.48734778  0.86485586     0.09100
H1069       H  0.14118899  0.49296528  0.06106715     0.07000
H1070       H  0.16372434  0.50903310  0.03555490     0.08200
H1071       H  0.16181184  0.49138927  0.07364003     0.07200
H1072       H  0.14194263  0.45227968  0.86497615     0.02100
H1073       H  0.11888780  0.43692763  0.88941753     0.02600
H1074       H  0.13843457  0.43303722  0.89976998     0.06100
H1075       H  0.08300202  0.46653677  0.91772488     0.05100
H1076       H  0.10100161  0.47256222  0.95883691    -0.00700
H1077       H  0.09264997  0.45120562  0.92644515     0.00800
H1078       H  0.16138254  0.52037150  0.79206190     0.04500
H1079       H  0.14792091  0.49911687  0.75917566     0.06400
H1080       H  0.16606168  0.50126485  0.79615883     0.07300
C1081       C  0.14803114  0.36530972  0.05566758    -0.22300
C1082       C  0.13383215  0.35537578  0.08711490     0.09600
C1083       C  0.13001064  0.36561124  0.11900400     0.10000
C1084       C  0.14088869  0.38557269  0.11943789    -0.17300
C1085       C  0.15558203  0.39549447  0.08891154    -0.27700
C1086       C  0.15879270  0.38521398  0.05580408     0.18400
C1087       C  0.12354079  0.33426830  0.08642713     0.12300
C1088       C  0.11458647  0.35545548  0.15272828    -0.12000
H1089       H  0.13840658  0.39343897  0.14475051     0.12600
C1090       C  0.17314169  0.39474264  0.01959633    -0.22900
H1091       H  0.15079017  0.35744428  0.03085705     0.08200
C1092       C  0.10953006  0.32371866  0.05452718     0.04600
C1093       C  0.10100385  0.30383991  0.05371732    -0.20100
C1094       C  0.10635761  0.29429400  0.08366405    -0.12400
C1095       C  0.12004458  0.30483693  0.11635250     0.13300
C1096       C  0.12850430  0.32469017  0.11717176    -0.22800
C1097       C  0.10370233  0.33345014  0.02113785    -0.05900
H1098       H  0.09058623  0.29574940  0.02859444     0.14800
C1099       C  0.12586405  0.29564088  0.15117688    -0.16100
H1100       H  0.13921522  0.33279931  0.14175442     0.09100
H1101       H  0.16593968  0.38996092  0.98726446     0.07000
H1102       H  0.18437232  0.39085131  0.02204793     0.08200
H1103       H  0.17991080  0.41036329  0.02047359     0.07200
H1104       H  0.11787490  0.34626081  0.17338626     0.02100
H1105       H  0.10073386  0.34655899  0.13597829     0.02600
H1106       H  0.11319622  0.36557033  0.17470696     0.06100
H1107       H  0.09234265  0.32309111  0.99904434     0.05100
H1108       H  0.11609749  0.34310238  0.00050420    -0.00700
H1109       H  0.09824797  0.34179716  0.03818424     0.00800
H1110       H  0.14121932  0.30042441  0.14767386     0.04500
H1111       H  0.11765540  0.27997964  0.14954077     0.06400
H1112       H  0.12339177  0.29980947  0.18418171     0.07300
C1113       C  0.99872552  0.15014310  0.00534334    -0.22300
C1114       C  0.98638428  0.15622852  0.99035317     0.09600
C1115       C  0.99312641  0.17583591  0.98607589     0.10000
C1116       C  0.01191110  0.18897563  0.99830780    -0.17300
C1117       C  0.02406097  0.18299182  0.01548528    -0.27700
C1118       C  0.01750023  0.16327458  0.01804784     0.18400
C1119       C  0.96623851  0.14195902  0.98061282     0.12300
C1120       C  0.98031052  0.18287822  0.96962534    -0.12000
H1121       H  0.01682698  0.20402607  0.99644452     0.12600
C1122       C  0.03025996  0.15597559  0.03346243    -0.22900
H1123       H  0.99349949  0.13504950  0.00791914     0.08200
C1124       C  0.96037218  0.13427568  0.93819718     0.04600
C1125       C  0.94089059  0.12229593  0.92956590    -0.20100
C1126       C  0.92708303  0.11778183  0.96243197    -0.12400
C1127       C  0.93319013  0.12443523  0.00587899     0.13300
C1128       C  0.95266407  0.13667840  0.01411928    -0.22800
C1129       C  0.97465848  0.13911565  0.90184335    -0.05900
H1130       H  0.93638022  0.11713135  0.89641998     0.14800
C1131       C  0.91980463  0.11867089  0.04460185    -0.16100
H1132       H  0.95730688  0.14227059  0.04695536     0.09100
H1133       H  0.02324386  0.14030743  0.03019036     0.07000
H1134       H  0.03394207  0.15948231  0.06860277     0.08200
H1135       H  0.04347303  0.16239434  0.01344292     0.07200
H1136       H  0.96782295  0.17787526  0.99171196     0.02100
H1137       H  0.97529360  0.17741933  0.93596220     0.02600
H1138       H  0.98777213  0.19862344  0.96845929     0.06100
H1139       H  0.96771614  0.13194427  0.87058742     0.05100
H1140       H  0.98494051  0.13454656  0.91116828    -0.00700
H1141       H  0.98250430  0.15466217  0.89599648     0.00800
H1142       H  0.92488292  0.11286862  0.07092457     0.04500
H1143       H  0.90509216  0.10744139  0.03670813     0.06400
H1144       H  0.91954767  0.13125485  0.05767659     0.07300
C1145       C  0.70343648  0.22175399  0.38526946    -0.22300
C1146       C  0.69748045  0.20925186  0.34941455     0.09600
C1147       C  0.71099943  0.20680466  0.32580542     0.10000
C1148       C  0.73004290  0.21647608  0.33922883    -0.17300
C1149       C  0.73614243  0.22837345  0.37647243    -0.27700
C1150       C  0.72257784  0.23134662  0.39928139     0.18400
C1151       C  0.67689124  0.19749576  0.33888030     0.12300
C1152       C  0.70522838  0.19334884  0.28733864    -0.12000
H1153       H  0.74014291  0.21419766  0.32087450     0.12600
C1154       C  0.72782823  0.24414111  0.43883229    -0.22900
H1155       H  0.69291993  0.22355205  0.40311240     0.08200
C1156       C  0.66506483  0.18076229  0.36266830     0.04600
C1157       C  0.64668332  0.16813195  0.34709868    -0.20100
C1158       C  0.63988706  0.17161667  0.30784104    -0.12400
C1159       C  0.65162681  0.18868664  0.28451181     0.13300
C1160       C  0.66981868  0.20155869  0.30095803    -0.22800
C1161       C  0.67221043  0.17573579  0.40321928    -0.05900
H1162       H  0.63782528  0.15500620  0.36469531     0.14800
C1163       C  0.64633531  0.19325576  0.24056555    -0.16100
H1164       H  0.67907508  0.21429179  0.28241120     0.09100
H1165       H  0.73317210  0.23875915  0.46548792     0.07000
H1166       H  0.71541607  0.24477784  0.45197320     0.08200
H1167       H  0.73887792  0.25880551  0.42971579     0.07200
H1168       H  0.69913157  0.19804495  0.26092775     0.02100
H1169       H  0.69445790  0.17881048  0.29801213     0.02600
H1170       H  0.71751567  0.19273057  0.27329942     0.06100
H1171       H  0.66127063  0.16196116  0.41739429     0.05100
H1172       H  0.67609738  0.18686319  0.42862068    -0.00700
H1173       H  0.68491960  0.17462881  0.39495816     0.00800
H1174       H  0.64591113  0.20661880  0.24318064     0.04500
H1175       H  0.63245756  0.18205355  0.22786081     0.06400
H1176       H  0.65724960  0.19526495  0.21584245     0.07300
C1177       C  0.87333389  0.32493290  0.52977978    -0.22300
C1178       C  0.86439839  0.32378625  0.56998243     0.09600
C1179       C  0.84595787  0.30834577  0.57791617     0.10000
C1180       C  0.83642528  0.29510583  0.54441271    -0.17300
C1181       C  0.84464626  0.29710893  0.50272432    -0.27700
C1182       C  0.86367842  0.31186556  0.49577679     0.18400
C1183       C  0.87214190  0.34086456  0.59830961     0.12300
C1184       C  0.83573315  0.30661841  0.62054642    -0.12000
H1185       H  0.82191075  0.28377617  0.54984738     0.12600
C1186       C  0.87384438  0.31538022  0.45238183    -0.22900
H1187       H  0.88739393  0.33697514  0.52366307     0.08200
C1188       C  0.88190287  0.34271872  0.63797463     0.04600
C1189       C  0.88492867  0.35728360  0.66760051    -0.20100
C1190       C  0.87850596  0.36998639  0.65782416    -0.12400
C1191       C  0.87060212  0.36921255  0.61589704     0.13300
C1192       C  0.86743786  0.35460552  0.58688809    -0.22800
C1193       C  0.88892413  0.32930200  0.64893534    -0.05900
H1194       H  0.89142911  0.35815098  0.69922443     0.14800
C1195       C  0.86558488  0.38380612  0.60119821    -0.16100
H1196       H  0.86040002  0.35334401  0.55576202     0.09100
H1197       H  0.88689941  0.31445115  0.45686400     0.07000
H1198       H  0.87803319  0.32984544  0.44052962     0.08200
H1199       H  0.86519236  0.30525704  0.42635726     0.07200
H1200       H  0.83418569  0.31927194  0.62540985     0.02100
H1201       H  0.84387437  0.30547920  0.64841886     0.02600
H1202       H  0.82128048  0.29384855  0.62099150     0.06100
H1203       H  0.89640436  0.33280457  0.68106658     0.05100
H1204       H  0.89904725  0.33025042  0.62318826    -0.00700
H1205       H  0.87684997  0.31450649  0.65044508     0.00800
H1206       H  0.86084443  0.38169638  0.56639227     0.04500
H1207       H  0.87832955  0.39817484  0.60397203     0.06400
H1208       H  0.85380853  0.38293655  0.62130632     0.07300
C1209       C  0.78314205  0.24179411  0.19284972    -0.22300
C1210       C  0.79315057  0.23488178  0.16901927     0.09600
C1211       C  0.80678739  0.23194100  0.19082091     0.10000
C1212       C  0.80962699  0.23540424  0.23633309    -0.17300
C1213       C  0.79952342  0.24224123  0.26018058    -0.27700
C1214       C  0.78617298  0.24557495  0.23806097     0.18400
C1215       C  0.78843965  0.23027141  0.12169349     0.12300
C1216       C  0.81860493  0.22557362  0.16593591    -0.12000
H1217       H  0.81996112  0.23302840  0.25329495     0.12600
C1218       C  0.77454481  0.25268242  0.26118898    -0.22900
H1219       H  0.77267446  0.24404028  0.17607299     0.08200
C1220       C  0.77465798  0.21181262  0.10819653     0.04600
C1221       C  0.76888601  0.20853357  0.06405098    -0.20100
C1222       C  0.77598162  0.22333180  0.03313534    -0.12400
C1223       C  0.79020106  0.24175867  0.04635801     0.13300
C1224       C  0.79634630  0.24492700  0.09044602    -0.22800
C1225       C  0.76535043  0.19573366  0.14071270    -0.05900
H1226       H  0.75829556  0.19435090  0.05379959     0.14800
C1227       C  0.79848201  0.25858210  0.01580307    -0.16100
H1228       H  0.80681393  0.25913265  0.10095864     0.09100
H1229       H  0.75916788  0.24221377  0.25709190     0.07000
H1230       H  0.77759306  0.26639303  0.24649016     0.08200
H1231       H  0.77749730  0.25494342  0.29687056     0.07200
H1232       H  0.82691068  0.23612744  0.14005679     0.02100
H1233       H  0.80934475  0.21160658  0.15024949     0.02600
H1234       H  0.82875577  0.22418696  0.18784792     0.06100
H1235       H  0.75467525  0.18229542  0.12470635     0.05100
H1236       H  0.75796716  0.19927588  0.16646629    -0.00700
H1237       H  0.77617526  0.19322180  0.15644009     0.00800
H1238       H  0.79582659  0.26969506  0.02930815     0.04500
H1239       H  0.79232070  0.25508723  0.98236364     0.06400
H1240       H  0.81407942  0.26450390  0.01300282     0.07300
C1241       C  0.75272391  0.20152798  0.58994248    -0.22300
C1242       C  0.76644672  0.20946374  0.62333062     0.09600
C1243       C  0.78497850  0.22416325  0.61274901     0.10000
C1244       C  0.78919600  0.23087514  0.56934226    -0.17300
C1245       C  0.77529910  0.22346350  0.53610185    -0.27700
C1246       C  0.75673222  0.20857911  0.54669440     0.18400
C1247       C  0.76070391  0.20358512  0.66979267     0.12300
C1248       C  0.80012013  0.23329690  0.64757652    -0.12000
H1249       H  0.80338407  0.24232074  0.56144848     0.12600
C1250       C  0.74038730  0.20065059  0.51458926    -0.22900
H1251       H  0.73844773  0.19036044  0.59822877     0.08200
C1252       C  0.74952761  0.20949839  0.69301689     0.04600
C1253       C  0.74553089  0.20487307  0.73768898    -0.20100
C1254       C  0.75280735  0.19487645  0.76013248    -0.12400
C1255       C  0.76359944  0.18851388  0.73666621     0.13300
C1256       C  0.76735948  0.19291842  0.69175398    -0.22800
C1257       C  0.74245630  0.22136982  0.67117916    -0.05900
H1258       H  0.73728257  0.20974676  0.75570166     0.14800
C1259       C  0.77105453  0.17678377  0.75759195    -0.16100
H1260       H  0.77576676  0.18821224  0.67385161     0.09100
H1261       H  0.72862487  0.20225241  0.52838350     0.07000
H1262       H  0.73513614  0.18533052  0.50922895     0.08200
H1263       H  0.74402873  0.20787287  0.48236632     0.07200
H1264       H  0.80312220  0.22259705  0.66210208     0.02100
H1265       H  0.79523198  0.23932592  0.67381294     0.02600
H1266       H  0.81364776  0.24496441  0.63395713     0.06100
H1267       H  0.73457643  0.22539360  0.69450950     0.05100
H1268       H  0.73268149  0.21330965  0.64383694    -0.00700
H1269       H  0.75469421  0.23461475  0.65811428     0.00800
H1270       H  0.76548458  0.16317655  0.73949686     0.04500
H1271       H  0.76674479  0.17324662  0.79239173     0.06400
H1272       H  0.78683498  0.18459510  0.75592376     0.07300
C1273       C  0.87464181  0.05037129  0.51188213    -0.22300
C1274       C  0.86958024  0.03711865  0.47783221     0.09600
C1275       C  0.87659966  0.04336924  0.43508185     0.10000
C1276       C  0.88784951  0.06289726  0.42690000    -0.17300
C1277       C  0.89198079  0.07631442  0.46037838    -0.27700
C1278       C  0.88600346  0.06989641  0.50394289     0.18400
C1279       C  0.85549959  0.01700850  0.48709603     0.12300
C1280       C  0.87178778  0.02945678  0.39795018    -0.12000
H1281       H  0.89248974  0.06772061  0.39357763     0.12600
C1282       C  0.89138352  0.08306302  0.54292456    -0.22900
H1283       H  0.86937170  0.04544656  0.54478928     0.08200
C1284       C  0.86034183  0.00507602  0.51023727     0.04600
C1285       C  0.84596415  0.98665051  0.52144611    -0.20100
C1286       C  0.82683346  0.97991739  0.51015710    -0.12400
C1287       C  0.82213399  0.99192091  0.48614622     0.13300
C1288       C  0.83657741  0.01025771  0.47483208    -0.22800
C1289       C  0.88062093  0.01186307  0.52336952    -0.05900
H1290       H  0.84962706  0.97759460  0.54000123     0.14800
C1291       C  0.80189278  0.98608965  0.47438178    -0.16100
H1292       H  0.83304208  0.01966640  0.45747483     0.09100
H1293       H  0.89779420  0.07842023  0.56876748     0.07000
H1294       H  0.90207538  0.09794327  0.53499758     0.08200
H1295       H  0.87847983  0.08258002  0.55655704     0.07200
H1296       H  0.85617187  0.02141222  0.39256627     0.02100
H1297       H  0.87674227  0.01937975  0.40608702     0.02600
H1298       H  0.87867104  0.03671398  0.36671924     0.06100
H1299       H  0.88200048  0.00064602  0.54077390     0.05100
H1300       H  0.88581723  0.02427519  0.54564844    -0.00700
H1301       H  0.88975611  0.01604331  0.49362421     0.00800
H1302       H  0.80094575  0.99766273  0.45752245     0.04500
H1303       H  0.79307992  0.98239966  0.50460582     0.06400
H1304       H  0.79594225  0.97373880  0.45175900     0.07300
C1305       C  0.85765057  0.17636680  0.41768921    -0.22300
C1306       C  0.86839918  0.19617941  0.41573415     0.09600
C1307       C  0.88842402  0.20536417  0.41763069     0.10000
C1308       C  0.89730120  0.19440335  0.41988875    -0.17300
C1309       C  0.88659816  0.17446051  0.42101232    -0.27700
C1310       C  0.86642300  0.16535395  0.42083782     0.18400
C1311       C  0.85820759  0.20691404  0.41232776     0.12300
C1312       C  0.90036764  0.22669846  0.41826793    -0.12000
H1313       H  0.91269581  0.20146080  0.42105906     0.12600
C1314       C  0.85394665  0.14418048  0.42625380    -0.22900
H1315       H  0.84225014  0.16950787  0.41716690     0.08200
C1316       C  0.85470399  0.21255373  0.37125876     0.04600
C1317       C  0.84445426  0.22217804  0.36956321    -0.20100
C1318       C  0.83713362  0.22577671  0.40788198    -0.12400
C1319       C  0.84064721  0.22004666  0.44909734     0.13300
C1320       C  0.85111307  0.21064288  0.45066910    -0.22800
C1321       C  0.86121198  0.20782137  0.32920668    -0.05900
H1322       H  0.84155585  0.22633208  0.33796790     0.14800
C1323       C  0.83406789  0.22396265  0.49215042    -0.16100
H1324       H  0.85377171  0.20616175  0.48212129     0.09100
H1325       H  0.85552816  0.13672323  0.39763271     0.07000
H1326       H  0.83865118  0.13983155  0.42860020     0.08200
H1327       H  0.85785973  0.13952157  0.45680940     0.07200
H1328       H  0.89648209  0.23233360  0.44721582     0.02100
H1329       H  0.89793380  0.23270953  0.38794881     0.02600
H1330       H  0.91579411  0.23158182  0.42035796     0.06100
H1331       H  0.85700925  0.21297167  0.29991519     0.05100
H1332       H  0.85472320  0.19219393  0.32626448    -0.00700
H1333       H  0.87692671  0.21447193  0.32905406     0.00800
H1334       H  0.82377093  0.21032114  0.50797540     0.04500
H1335       H  0.82729726  0.23275022  0.48876369     0.06400
H1336       H  0.84648775  0.23179382  0.51428536     0.07300
C1337       C  0.91301853  0.13432635  0.64465384    -0.22300
C1338       C  0.89622006  0.13225432  0.66236869     0.09600
C1339       C  0.88364218  0.13487405  0.63538706     0.10000
C1340       C  0.88804266  0.13917537  0.59064516    -0.17300
C1341       C  0.90481335  0.14101900  0.57250186    -0.27700
C1342       C  0.91747195  0.13855170  0.60012809     0.18400
C1343       C  0.89150463  0.12559446  0.70832892     0.12300
C1344       C  0.86547409  0.13275101  0.65373264    -0.12000
H1345       H  0.87828476  0.14097841  0.56968572     0.12600
C1346       C  0.93530350  0.13944944  0.58289742    -0.22900
H1347       H  0.92242514  0.13204805  0.66568991     0.08200
C1348       C  0.88392580  0.10627924  0.71846874     0.04600
C1349       C  0.88107347  0.10055128  0.76243617    -0.20100
C1350       C  0.88560561  0.11361552  0.79715734    -0.12400
C1351       C  0.89307757  0.13309931  0.78664481     0.13300
C1352       C  0.89591116  0.13877603  0.74226848    -0.22800
C1353       C  0.87882189  0.09164649  0.68276757    -0.05900
H1354       H  0.87526095  0.08561292  0.76946613     0.14800
C1355       C  0.89826167  0.14807942  0.82140612    -0.16100
H1356       H  0.90186682  0.15363179  0.73390092     0.09100
H1357       H  0.94544999  0.15404936  0.57158976     0.07000
H1358       H  0.94263326  0.13580705  0.60856113     0.08200
H1359       H  0.93174952  0.12925889  0.55537757     0.07200
H1360       H  0.86882592  0.14323951  0.68046811     0.02100
H1361       H  0.85649327  0.11821591  0.66710058     0.02600
H1362       H  0.85715194  0.13514749  0.62820259     0.06100
H1363       H  0.87274618  0.07709409  0.69637877     0.05100
H1364       H  0.89169244  0.09483229  0.66353076    -0.00700
H1365       H  0.86809022  0.09178059  0.66047331     0.00800
H1366       H  0.90375700  0.16240265  0.80687813     0.04500
H1367       H  0.90954957  0.14869924  0.84301836     0.06400
H1368       H  0.88552400  0.14483325  0.84115435     0.07300
C1369       C  0.87710103  0.12190754  0.13466241    -0.22300
C1370       C  0.87042108  0.10645424  0.16337979     0.09600
C1371       C  0.85813870  0.08800196  0.14762592     0.10000
C1372       C  0.85340612  0.08529372  0.10290756    -0.17300
C1373       C  0.86086170  0.10057851  0.07302175    -0.27700
C1374       C  0.87253555  0.11929642  0.08967573     0.18400
C1375       C  0.87744582  0.10970946  0.20923311     0.12300
C1376       C  0.85050622  0.07109166  0.17783461    -0.12000
H1377       H  0.84417186  0.07098465  0.09119822     0.12600
C1378       C  0.88067708  0.13665300  0.06076226    -0.22900
H1379       H  0.88642099  0.13604619  0.14740968     0.08200
C1380       C  0.89531683  0.11187277  0.21951105     0.04600
C1381       C  0.90118379  0.11419053  0.26345144    -0.20100
C1382       C  0.88989577  0.11498883  0.29757513    -0.12400
C1383       C  0.87192803  0.11284641  0.28694604     0.13300
C1384       C  0.86590554  0.11008862  0.24289860    -0.22800
C1385       C  0.90822904  0.11178853  0.18404977    -0.05900
H1386       H  0.91486311  0.11563742  0.27105459     0.14800
C1387       C  0.85936577  0.11427459  0.32119496    -0.16100
H1388       H  0.85218924  0.10842963  0.23447918     0.09100
H1389       H  0.88916481  0.14993292  0.07985181     0.07000
H1390       H  0.86896637  0.13760291  0.04449985     0.08200
H1391       H  0.89027219  0.13601362  0.03574901     0.07200
H1392       H  0.84192888  0.07252849  0.20432913     0.02100
H1393       H  0.86249438  0.07020116  0.19272820     0.02600
H1394       H  0.84128443  0.05759327  0.16011800     0.06100
H1395       H  0.92164399  0.11348070  0.19781894     0.05100
H1396       H  0.91203956  0.12369209  0.16089669    -0.00700
H1397       H  0.90091222  0.09817066  0.16573108     0.00800
H1398       H  0.84624084  0.11298469  0.30665379     0.04500
H1399       H  0.86725433  0.12831593  0.33746772     0.06400
H1400       H  0.85494485  0.10275208  0.34575172     0.07300
C1401       C  0.97810985  0.18546557  0.26059219    -0.22300
C1402       C  0.99189765  0.20418407  0.27049598     0.09600
C1403       C  0.99035903  0.21262439  0.30961520     0.10000
C1404       C  0.97582551  0.20150296  0.33981935    -0.17300
C1405       C  0.96298397  0.18220839  0.33149556    -0.27700
C1406       C  0.96366945  0.17436079  0.29047696     0.18400
C1407       C  0.00866554  0.21343794  0.24109302     0.12300
C1408       C  0.00410510  0.23319177  0.31953817    -0.12000
H1409       H  0.97511498  0.20760077  0.37090998     0.12600
C1410       C  0.94918276  0.15431961  0.27772014    -0.22900
H1411       H  0.97920245  0.17924277  0.23001836     0.08200
C1412       C  0.02476126  0.21170551  0.24952968     0.04600
C1413       C  0.03842792  0.21642504  0.21656351    -0.20100
C1414       C  0.03611954  0.22200487  0.17427062    -0.12400
C1415       C  0.02039915  0.22475650  0.16674115     0.13300
C1416       C  0.00694587  0.22047933  0.20043358    -0.22800
C1417       C  0.02691636  0.20357326  0.29223761    -0.05900
H1418       H  0.05051921  0.21468519  0.22343424     0.14800
C1419       C  0.01708353  0.23140006  0.12318988    -0.16100
H1420       H  0.99439195  0.22154527  0.19421398     0.09100
H1421       H  0.95128407  0.15100827  0.24348125     0.07000
H1422       H  0.93471908  0.15245527  0.27986194     0.08200
H1423       H  0.95024596  0.14399799  0.29948047     0.07200
H1424       H  0.00329171  0.24217681  0.29322525     0.02100
H1425       H  0.01885814  0.23583637  0.32121292     0.02600
H1426       H  0.00079504  0.23756508  0.35136019     0.06100
H1427       H  0.04012355  0.20271902  0.29286745     0.05100
H1428       H  0.01466341  0.18900774  0.29691577    -0.00700
H1429       H  0.02754125  0.21258438  0.32017866     0.00800
H1430       H  0.01478217  0.22092113  0.09713620     0.04500
H1431       H  0.02948969  0.24545705  0.11481915     0.06400
H1432       H  0.00430074  0.23299611  0.12391921     0.07300
C1433       C  0.84059037  0.00324899  0.03662436    -0.22300
C1434       C  0.84771066  0.99365117  0.01214605     0.09600
C1435       C  0.86085879  0.00317572  0.97801882     0.10000
C1436       C  0.86577622  0.02187967  0.96756193    -0.17300
C1437       C  0.85750359  0.03100391  0.98998177    -0.27700
C1438       C  0.84541163  0.02184759  0.02623953     0.18400
C1439       C  0.83915086  0.97303611  0.01955279     0.12300
C1440       C  0.86918606  0.99340263  0.95189445    -0.12000
H1441       H  0.87502754  0.02887326  0.93975044     0.12600
C1442       C  0.83715944  0.03113817  0.05438807    -0.22900
H1443       H  0.83057661  0.99588961  0.06301978     0.08200
C1444       C  0.84309305  0.96569095  0.05747249     0.04600
C1445       C  0.83217610  0.94615266  0.06622119    -0.20100
C1446       C  0.81737018  0.93394989  0.03799521    -0.12400
C1447       C  0.81433576  0.94122680  0.99856077     0.13300
C1448       C  0.82510264  0.96071277  0.99017336    -0.22800
C1449       C  0.85855585  0.97851608  0.08890438    -0.05900
H1450       H  0.83460903  0.94052612  0.09621678     0.14800
C1451       C  0.80013167  0.92891790  0.96430753    -0.16100
H1452       H  0.82222438  0.96642187  0.96089952     0.09100
H1453       H  0.84089774  0.03077354  0.08931921     0.07000
H1454       H  0.82142535  0.02335209  0.05106133     0.08200
H1455       H  0.84274476  0.04618806  0.04574322     0.07200
H1456       H  0.85770959  0.98084479  0.93469683     0.02100
H1457       H  0.87681383  0.98873432  0.97428215     0.02600
H1458       H  0.87943204  0.00297410  0.92676842     0.06100
H1459       H  0.85999102  0.97042616  0.11651592     0.05100
H1460       H  0.85531874  0.98913878  0.10294837    -0.00700
H1461       H  0.87237043  0.98600189  0.07125320     0.00800
H1462       H  0.78870896  0.93253016  0.96151483     0.04500
H1463       H  0.79372076  0.91370611  0.97180971     0.06400
H1464       H  0.80736106  0.93130550  0.93202216     0.07300
C1465       C  0.76304293  0.85718061  0.84773485    -0.22300
C1466       C  0.76369052  0.87347602  0.83083072     0.09600
C1467       C  0.76378759  0.88697492  0.85989225     0.10000
C1468       C  0.76353356  0.88402120  0.90522541    -0.17300
C1469       C  0.76353583  0.86803809  0.92279074    -0.27700
C1470       C  0.76300174  0.85424136  0.89333022     0.18400
C1471       C  0.76546276  0.87695200  0.78278625     0.12300
C1472       C  0.76475685  0.90484852  0.84313347    -0.12000
H1473       H  0.76358947  0.89453060  0.92708267     0.12600
C1474       C  0.76285289  0.83666670  0.90918132    -0.22900
H1475       H  0.76296131  0.84687354  0.82494106     0.08200
C1476       C  0.78311639  0.88398680  0.76140682     0.04600
C1477       C  0.78493229  0.88982783  0.71749087    -0.20100
C1478       C  0.76952481  0.88890344  0.69416408    -0.12400
C1479       C  0.75153411  0.88092874  0.71527304     0.13300
C1480       C  0.74978887  0.87505286  0.75929698    -0.22800
C1481       C  0.80023552  0.88597063  0.78540353    -0.05900
H1482       H  0.79866813  0.89556668  0.70164640     0.14800
C1483       C  0.73424125  0.87912603  0.69260979    -0.16100
H1484       H  0.73627213  0.86955744  0.77610774     0.09100
H1485       H  0.76300637  0.82787833  0.88144674     0.07000
H1486       H  0.74977285  0.82776073  0.92863293     0.08200
H1487       H  0.77561970  0.84068042  0.92962016     0.07200
H1488       H  0.75200682  0.90119932  0.82294680     0.02100
H1489       H  0.77774352  0.91300843  0.82281840     0.02600
H1490       H  0.76528715  0.91416275  0.87040290     0.06100
H1491       H  0.81304947  0.89208119  0.76406436     0.05100
H1492       H  0.79735126  0.87182477  0.79671462    -0.00700
H1493       H  0.80345528  0.89544984  0.81425848     0.00800
H1494       H  0.72163587  0.87306895  0.71461499     0.04500
H1495       H  0.73056064  0.86948566  0.66394011     0.06400
H1496       H  0.73706477  0.89331790  0.68178898     0.07300
C1497       C  0.77303142  0.91497385  0.25697707    -0.22300
C1498       C  0.76002624  0.89917894  0.28156109     0.09600
C1499       C  0.74846468  0.88168506  0.26019278     0.10000
C1500       C  0.75107222  0.88005400  0.21510085    -0.17300
C1501       C  0.76525877  0.89542166  0.19130102    -0.27700
C1502       C  0.77588358  0.91329162  0.21206428     0.18400
C1503       C  0.76037175  0.90083287  0.33015677     0.12300
C1504       C  0.73405827  0.86455581  0.28542579    -0.12000
H1505       H  0.74287206  0.86638327  0.19905221     0.12600
C1506       C  0.79023406  0.93059010  0.18706805    -0.22900
H1507       H  0.78162504  0.92841573  0.27351543     0.08200
C1508       C  0.77442788  0.89973927  0.35504247     0.04600
C1509       C  0.77491811  0.90208505  0.40076996    -0.20100
C1510       C  0.76186782  0.90581386  0.42232554    -0.12400
C1511       C  0.74734866  0.90626506  0.39745412     0.13300
C1512       C  0.74680488  0.90376403  0.35158154    -0.22800
C1513       C  0.78899829  0.89618591  0.33323783    -0.05900
H1514       H  0.78591127  0.90151678  0.41968288     0.14800
C1515       C  0.73209107  0.90881229  0.41904697    -0.16100
H1516       H  0.73588752  0.90427517  0.33225219     0.09100
H1517       H  0.79638563  0.94354806  0.20782759     0.07000
H1518       H  0.78325255  0.93292935  0.15833305     0.08200
H1519       H  0.80215174  0.92875233  0.17559454     0.07200
H1520       H  0.72344663  0.86756000  0.30065800     0.02100
H1521       H  0.74130155  0.86105442  0.31158380     0.02600
H1522       H  0.72633962  0.85193789  0.26382555     0.06100
H1523       H  0.79874738  0.89538338  0.35754617     0.05100
H1524       H  0.79773085  0.90787816  0.31000376    -0.00700
H1525       H  0.78172621  0.88254879  0.31497086     0.00800
H1526       H  0.72120500  0.90746768  0.39501529     0.04500
H1527       H  0.73842257  0.92311792  0.43406693     0.06400
H1528       H  0.72476464  0.89780690  0.44473668     0.07300
C1529       C  0.48721492  0.78430570  0.17369429    -0.22300
C1530       C  0.48846309  0.79973368  0.15038452     0.09600
C1531       C  0.49833437  0.80507755  0.11004813     0.10000
C1532       C  0.50723989  0.79527178  0.09457811    -0.17300
C1533       C  0.50671672  0.78030509  0.11857529    -0.27700
C1534       C  0.49632477  0.77456225  0.15852743     0.18400
C1535       C  0.48263239  0.81233357  0.17206736     0.12300
C1536       C  0.50016811  0.82169435  0.08423325    -0.12000
H1537       H  0.51521012  0.79971901  0.06410024     0.12600
C1538       C  0.49555071  0.75922574  0.18761604    -0.22900
H1539       H  0.47998603  0.78052711  0.20516713     0.08200
C1540       C  0.46477353  0.81083989  0.16508194     0.04600
C1541       C  0.46130092  0.82486882  0.18243096    -0.20100
C1542       C  0.47542773  0.84044299  0.20611060    -0.12400
C1543       C  0.49305483  0.84131485  0.21453352     0.13300
C1544       C  0.49629869  0.82722379  0.19754264    -0.22800
C1545       C  0.44954589  0.79456717  0.13911727    -0.05900
H1546       H  0.44772937  0.82395440  0.17642022     0.14800
C1547       C  0.50859545  0.85684736  0.24187196    -0.16100
H1548       H  0.50990068  0.82812569  0.20295635     0.09100
H1549       H  0.48055661  0.74761009  0.19107152     0.07000
H1550       H  0.50114837  0.76518903  0.22066772     0.08200
H1551       H  0.50404914  0.75306364  0.17515601     0.07200
H1552       H  0.50759467  0.83484178  0.10423582     0.02100
H1553       H  0.48583850  0.81911499  0.07522382     0.02600
H1554       H  0.50841171  0.82402065  0.05348117     0.06100
H1555       H  0.43639417  0.79546561  0.13671411     0.05100
H1556       H  0.44589536  0.78095635  0.15534894    -0.00700
H1557       H  0.45468672  0.79460371  0.10532585     0.00800
H1558       H  0.50283614  0.85767679  0.27434813     0.04500
H1559       H  0.51464670  0.87067729  0.22464025     0.06400
H1560       H  0.52054726  0.85422520  0.24789446     0.07300
C1561       C  0.63976618  0.77826474  0.07179381    -0.22300
C1562       C  0.65134459  0.79734027  0.08356609     0.09600
C1563       C  0.64292943  0.80783005  0.09803805     0.10000
C1564       C  0.62306271  0.79912272  0.09959975    -0.17300
C1565       C  0.61115530  0.78003780  0.08705487    -0.27700
C1566       C  0.61977570  0.76938423  0.07348535     0.18400
C1567       C  0.67222100  0.80670334  0.07730323     0.12300
C1568       C  0.65496928  0.82829931  0.11180788    -0.12000
H1569       H  0.61685657  0.80745658  0.11059730     0.12600
C1570       C  0.60827741  0.74876168  0.06055346    -0.22900
H1571       H  0.64645031  0.77038779  0.06061569     0.08200
C1572       C  0.68439037  0.80598409  0.10930279     0.04600
C1573       C  0.70423157  0.81698874  0.10353275    -0.20100
C1574       C  0.71206257  0.82904167  0.06703178    -0.12400
C1575       C  0.69970667  0.82910226  0.03417326     0.13300
C1576       C  0.67998363  0.81778407  0.03965525    -0.22800
C1577       C  0.67641689  0.79410300  0.15004047    -0.05900
H1578       H  0.71363459  0.81680415  0.12849262     0.14800
C1579       C  0.70706719  0.84091913  0.99296940    -0.16100
H1580       H  0.67047410  0.81809522  0.01517429     0.09100
H1581       H  0.59939122  0.74023203  0.08867031     0.07000
H1582       H  0.61749958  0.74291061  0.05103310     0.08200
H1583       H  0.59911351  0.74710169  0.03191894     0.07200
H1584       H  0.66374000  0.83696702  0.08372642     0.02100
H1585       H  0.66447945  0.82941544  0.13922842     0.02600
H1586       H  0.64613964  0.83434870  0.12311032     0.06100
H1587       H  0.68786538  0.79523948  0.17194584     0.05100
H1588       H  0.66721922  0.77897056  0.14076986    -0.00700
H1589       H  0.66783931  0.79888146  0.16866928     0.00800
H1590       H  0.69539268  0.83792145  0.96960618     0.04500
H1591       H  0.71724796  0.83776523  0.97597023     0.06400
H1592       H  0.71414695  0.85624353  0.00114805     0.07300
C1593       C  0.56847906  0.79850496  0.38484271    -0.22300
C1594       C  0.56097025  0.77974014  0.37066670     0.09600
C1595       C  0.55320629  0.76482542  0.40165884     0.10000
C1596       C  0.55194139  0.76896854  0.44596098    -0.17300
C1597       C  0.55810512  0.78763977  0.45940447    -0.27700
C1598       C  0.56714524  0.80267163  0.42882053     0.18400
C1599       C  0.56010386  0.77609551  0.32282633     0.12300
C1600       C  0.54545519  0.74452974  0.38762709    -0.12000
H1601       H  0.54507414  0.75752008  0.46955412     0.12600
C1602       C  0.57542892  0.82326378  0.44129190    -0.22900
H1603       H  0.57481505  0.80993457  0.36107571     0.08200
C1604       C  0.54699951  0.77793719  0.29592010     0.04600
C1605       C  0.54691692  0.77489915  0.25061994    -0.20100
C1606       C  0.55950893  0.76990818  0.23135341    -0.12400
C1607       C  0.57263591  0.76802363  0.25852031     0.13300
C1608       C  0.57277713  0.77122155  0.30395599    -0.22800
C1609       C  0.53291272  0.78287975  0.31500994    -0.05900
H1610       H  0.53681075  0.77630669  0.23011920     0.14800
C1611       C  0.58693229  0.76327771  0.24000122    -0.16100
H1612       H  0.58291002  0.77005632  0.32492533     0.09100
H1613       H  0.56799360  0.82941103  0.42307787     0.07000
H1614       H  0.59072917  0.83124364  0.43226110     0.08200
H1615       H  0.57444663  0.82542928  0.47693224     0.07200
H1616       H  0.55698952  0.74285000  0.37277991     0.02100
H1617       H  0.53394084  0.74051316  0.36310736     0.02600
H1618       H  0.53952118  0.73460026  0.41584948     0.06100
H1619       H  0.52332689  0.78317717  0.28944824     0.05100
H1620       H  0.54052486  0.79712119  0.33053800    -0.00700
H1621       H  0.52398832  0.77216734  0.34005143     0.00800
H1622       H  0.59567462  0.77379875  0.21443343     0.04500
H1623       H  0.57949452  0.74880620  0.22562183     0.06400
H1624       H  0.59672583  0.76351461  0.26574359     0.07300
C1625       C  0.57323031  0.80056288  0.79711578    -0.22300
C1626       C  0.56243765  0.80529566  0.82454641     0.09600
C1627       C  0.55320933  0.81448258  0.80687458     0.10000
C1628       C  0.55451910  0.81821740  0.76169485    -0.17300
C1629       C  0.56435909  0.81248512  0.73318734    -0.27700
C1630       C  0.57425496  0.80386566  0.75164117     0.18400
C1631       C  0.55964458  0.79899022  0.87089365     0.12300
C1632       C  0.54139908  0.81972400  0.83540526    -0.12000
H1633       H  0.54730191  0.82523019  0.74855963     0.12600
C1634       C  0.58569192  0.79774203  0.72427926    -0.22900
H1635       H  0.58033150  0.79358414  0.81132367     0.08200
C1636       C  0.54670600  0.77994543  0.88189661     0.04600
C1637       C  0.54406858  0.77450927  0.92608709    -0.20100
C1638       C  0.55400696  0.78760609  0.95974549    -0.12400
C1639       C  0.56681304  0.80681967  0.94870045     0.13300
C1640       C  0.56962364  0.81218516  0.90422362    -0.22800
C1641       C  0.53550859  0.76538443  0.84704509    -0.05900
H1642       H  0.53424162  0.75980880  0.93442966     0.14800
C1643       C  0.57705912  0.82221892  0.98244970    -0.16100
H1644       H  0.57937127  0.82685752  0.89548592     0.09100
H1645       H  0.57625514  0.78652558  0.70074393     0.07000
H1646       H  0.59270037  0.79175161  0.74478744     0.08200
H1647       H  0.59706374  0.81012705  0.70636063     0.07200
H1648       H  0.55047348  0.82986324  0.86122741     0.02100
H1649       H  0.52979070  0.80678149  0.85118440     0.02600
H1650       H  0.53482159  0.82650362  0.81613118     0.06100
H1651       H  0.52574059  0.75122919  0.86150381     0.05100
H1652       H  0.54534072  0.76382228  0.82442928    -0.00700
H1653       H  0.52683190  0.76991161  0.82800837     0.00800
H1654       H  0.59263734  0.82808959  0.97936844     0.04500
H1655       H  0.57273255  0.81736501  0.01662312     0.06400
H1656       H  0.57390649  0.83380219  0.97659416     0.07300
C1657       C  0.53920756  0.67295607  0.84595365    -0.22300
C1658       C  0.53358122  0.66838302  0.88995229     0.09600
C1659       C  0.52167223  0.64915836  0.90176521     0.10000
C1660       C  0.51460008  0.63512480  0.86894041    -0.17300
C1661       C  0.51891343  0.63986994  0.82450541    -0.27700
C1662       C  0.53198149  0.65892981  0.81301297     0.18400
C1663       C  0.53683894  0.68384929  0.92100623     0.12300
C1664       C  0.51524785  0.64359996  0.94856773    -0.12000
H1665       H  0.50435451  0.62057487  0.87758783     0.12600
C1666       C  0.53753327  0.66511944  0.76606435    -0.22900
H1667       H  0.54824258  0.68771147  0.83682008     0.08200
C1668       C  0.55189539  0.69171238  0.95164028     0.04600
C1669       C  0.55272954  0.70487125  0.98302025    -0.20100
C1670       C  0.53913651  0.71076561  0.98356995    -0.12400
C1671       C  0.52456017  0.70340817  0.95121363     0.13300
C1672       C  0.52358752  0.69000392  0.92080107    -0.22800
C1673       C  0.56708969  0.68633558  0.95087507    -0.05900
H1674       H  0.56408080  0.71063563  0.00709063     0.14800
C1675       C  0.50947897  0.70898363  0.94908780    -0.16100
H1676       H  0.51213292  0.68395196  0.89692718     0.09100
H1677       H  0.55325245  0.67234437  0.76282255     0.07000
H1678       H  0.53273148  0.67519122  0.75659284     0.08200
H1679       H  0.53131756  0.65307014  0.74264968     0.07200
H1680       H  0.50725985  0.65055920  0.95983615     0.02100
H1681       H  0.52776033  0.64801292  0.97017672     0.02600
H1682       H  0.50581773  0.62802114  0.95202690     0.06100
H1683       H  0.57800057  0.69394643  0.97664495     0.05100
H1684       H  0.57430794  0.69002087  0.91841651    -0.00700
H1685       H  0.56069501  0.67086794  0.95643606     0.00800
H1686       H  0.51607939  0.72426422  0.94089831     0.04500
H1687       H  0.50192074  0.70608034  0.98098744     0.06400
H1688       H  0.49868788  0.70095243  0.92335914     0.07300
C1689       C  0.47384348  0.67364018  0.66180626    -0.22300
C1690       C  0.49269807  0.68746990  0.65255347     0.09600
C1691       C  0.50718594  0.68287958  0.65525089     0.10000
C1692       C  0.50261497  0.66468895  0.66853353    -0.17300
C1693       C  0.48388147  0.65081416  0.67992374    -0.27700
C1694       C  0.46917155  0.65529041  0.67547920     0.18400
C1695       C  0.49749192  0.70701348  0.64141766     0.12300
C1696       C  0.52759373  0.69729536  0.64458378    -0.12000
H1697       H  0.51405432  0.66155924  0.67113332     0.12600
C1698       C  0.44863181  0.64109506  0.68522059    -0.22900
H1699       H  0.46284157  0.67736817  0.65913084     0.08200
C1700       C  0.49699690  0.71239937  0.59771308     0.04600
C1701       C  0.50535854  0.73174205  0.58743524    -0.20100
C1702       C  0.51465620  0.74577758  0.61977356    -0.12400
C1703       C  0.51409111  0.74021263  0.66416848     0.13300
C1704       C  0.50530466  0.72084630  0.67436498    -0.22800
C1705       C  0.48844820  0.69776822  0.56176334    -0.05900
H1706       H  0.50561715  0.73592095  0.55352851     0.14800
C1707       C  0.52281984  0.75446256  0.70101086    -0.16100
H1708       H  0.50551408  0.71646250  0.70788853     0.09100
H1709       H  0.44382913  0.62828593  0.66440587     0.07000
H1710       H  0.43918418  0.64695660  0.67826660     0.08200
H1711       H  0.44690286  0.63709643  0.72047377     0.07200
H1712       H  0.53285332  0.70956381  0.66732445     0.02100
H1713       H  0.52860637  0.70232892  0.61027645     0.02600
H1714       H  0.53710185  0.69125221  0.64782877     0.06100
H1715       H  0.48931640  0.70437599  0.52930834     0.05100
H1716       H  0.47322848  0.68772948  0.56913324    -0.00700
H1717       H  0.49613991  0.68976577  0.55942325     0.00800
H1718       H  0.51956890  0.74744825  0.73368116     0.04500
H1719       H  0.51712387  0.76430351  0.70056127     0.06400
H1720       H  0.53853621  0.76262439  0.69773912     0.07300
C1721       C  0.53571729  0.51785771  0.71420099    -0.22300
C1722       C  0.54115044  0.53307952  0.74313264     0.09600
C1723       C  0.55574017  0.53751358  0.77384167     0.10000
C1724       C  0.56430158  0.52628480  0.77569692    -0.17300
C1725       C  0.55849136  0.51048198  0.74785778    -0.27700
C1726       C  0.54412969  0.50645852  0.71599083     0.18400
C1727       C  0.53085838  0.54376451  0.74167550     0.12300
C1728       C  0.56219865  0.55406024  0.80480824    -0.12000
H1729       H  0.57527492  0.52964922  0.79998119     0.12600
C1730       C  0.53740823  0.49028346  0.68368982    -0.22900
H1731       H  0.52451989  0.51468344  0.69056431     0.08200
C1732       C  0.53482565  0.55763317  0.70940718     0.04600
C1733       C  0.52428613  0.56696209  0.70873867    -0.20100
C1734       C  0.50969991  0.56268514  0.73947576    -0.12400
C1735       C  0.50602709  0.54889530  0.77246223     0.13300
C1736       C  0.51667589  0.53965908  0.77294088    -0.22800
C1737       C  0.55022347  0.56260313  0.67576715    -0.05900
H1738       H  0.52726957  0.57741240  0.68339906     0.14800
C1739       C  0.49116495  0.54384205  0.80767606    -0.16100
H1740       H  0.51383721  0.52899060  0.79770208     0.09100
H1741       H  0.54965588  0.49169659  0.66443211     0.07000
H1742       H  0.52691657  0.49007867  0.66000788     0.08200
H1743       H  0.53028351  0.47650432  0.70132764     0.07200
H1744       H  0.55019056  0.55189472  0.82612675     0.02100
H1745       H  0.56731603  0.56735284  0.78569744     0.02600
H1746       H  0.57397371  0.55576395  0.82635916     0.06100
H1747       H  0.55170306  0.57396635  0.65320540     0.05100
H1748       H  0.54683868  0.54991088  0.65571072    -0.00700
H1749       H  0.56406915  0.56766015  0.69258743     0.00800
H1750       H  0.47675602  0.53697452  0.79280349     0.04500
H1751       H  0.49398310  0.55681231  0.82586988     0.06400
H1752       H  0.49121380  0.53368570  0.83191321     0.07300
C1753       C  0.66515055  0.52601092  0.63684574    -0.22300
C1754       C  0.65923757  0.53357356  0.60312058     0.09600
C1755       C  0.64142168  0.53259895  0.60653929     0.10000
C1756       C  0.62947930  0.52308788  0.64243288    -0.17300
C1757       C  0.63493600  0.51444456  0.67461348    -0.27700
C1758       C  0.65334603  0.51665278  0.67279672     0.18400
C1759       C  0.67097824  0.54021555  0.56255844     0.12300
C1760       C  0.63493875  0.54142480  0.57223253    -0.12000
H1761       H  0.61547089  0.52157080  0.64419666     0.12600
C1762       C  0.66071225  0.50927504  0.70872842    -0.22900
H1763       H  0.67877897  0.52671852  0.63408016     0.08200
C1764       C  0.68975036  0.55591677  0.56237941     0.04600
C1765       C  0.70120935  0.55944916  0.52492431    -0.20100
C1766       C  0.69426553  0.54763040  0.48792283    -0.12400
C1767       C  0.67508400  0.53277906  0.48704737     0.13300
C1768       C  0.66380336  0.52910694  0.52455996    -0.22800
C1769       C  0.69778497  0.56875505  0.60175372    -0.05900
H1770       H  0.71594860  0.57076942  0.52547858     0.14800
C1771       C  0.66613102  0.52038106  0.44726050    -0.16100
H1772       H  0.64945512  0.51700429  0.52465408     0.09100
H1773       H  0.65960765  0.51503471  0.74097259     0.07000
H1774       H  0.67588131  0.51360045  0.70348995     0.08200
H1775       H  0.65250719  0.49355254  0.70971981     0.07200
H1776       H  0.63326437  0.53442319  0.53998709     0.02100
H1777       H  0.64557405  0.55676734  0.56917341     0.02600
H1778       H  0.62102700  0.54002570  0.58095663     0.06100
H1779       H  0.71241008  0.58068534  0.59538947     0.05100
H1780       H  0.69849178  0.56075328  0.63041853    -0.00700
H1781       H  0.68863063  0.57482447  0.60998226     0.00800
H1782       H  0.66180468  0.50545735  0.45521164     0.04500
H1783       H  0.67575885  0.52490012  0.41847602     0.06400
H1784       H  0.65330791  0.52101710  0.43748134     0.07300
C1785       C  0.78028739  0.80600694  0.21182135    -0.22300
C1786       C  0.79508035  0.81664569  0.24150489     0.09600
C1787       C  0.80413814  0.83662155  0.24103023     0.10000
C1788       C  0.79864668  0.84555392  0.20986257    -0.17300
C1789       C  0.78459878  0.83508326  0.17826167    -0.27700
C1790       C  0.77486866  0.81497589  0.18013857     0.18400
C1791       C  0.80232086  0.80699415  0.27017149     0.12300
C1792       C  0.82021648  0.84858663  0.27218233    -0.12000
H1793       H  0.80615661  0.86093942  0.20879497     0.12600
C1794       C  0.75868329  0.80290560  0.14943435    -0.22900
H1795       H  0.77334034  0.79065255  0.21270340     0.08200
C1796       C  0.79702337  0.80310113  0.31465469     0.04600
C1797       C  0.80702090  0.79735080  0.34232503    -0.20100
C1798       C  0.82232737  0.79550263  0.32659483    -0.12400
C1799       C  0.82667293  0.79820272  0.28093322     0.13300
C1800       C  0.81652416  0.80383379  0.25349621    -0.22800
C1801       C  0.78106916  0.80537315  0.33298477    -0.05900
H1802       H  0.80336475  0.79514078  0.37687731     0.14800
C1803       C  0.84212136  0.79558865  0.26049669    -0.16100
H1804       H  0.82033864  0.80674670  0.21906515     0.09100
H1805       H  0.75186671  0.78760072  0.15784168     0.07000
H1806       H  0.76392306  0.80458055  0.11516846     0.08200
H1807       H  0.74764998  0.80708747  0.15162327     0.07200
H1808       H  0.83207735  0.84574969  0.26710480     0.02100
H1809       H  0.81522443  0.84520917  0.30666532     0.02600
H1810       H  0.82585146  0.86399520  0.26702655     0.06100
H1811       H  0.77873223  0.80176570  0.36847098     0.05100
H1812       H  0.76768556  0.79581492  0.31515882    -0.00700
H1813       H  0.78432302  0.82023692  0.32907088     0.00800
H1814       H  0.84228567  0.79677505  0.22412346     0.04500
H1815       H  0.83979712  0.78130125  0.26863240     0.06400
H1816       H  0.85629993  0.80673048  0.27235123     0.07300
C1817       C  0.78959108  0.69097480  0.43355563    -0.22300
C1818       C  0.79689623  0.68069608  0.41253394     0.09600
C1819       C  0.81536674  0.69046747  0.39444694     0.10000
C1820       C  0.82625521  0.71029309  0.39837650    -0.17300
C1821       C  0.81914344  0.72070609  0.41983083    -0.27700
C1822       C  0.80055677  0.71083436  0.43810464     0.18400
C1823       C  0.78550357  0.65962038  0.41159972     0.12300
C1824       C  0.82366408  0.67990577  0.37145501    -0.12000
H1825       H  0.84052140  0.71773885  0.38481043     0.12600
C1826       C  0.79214330  0.72038469  0.46488932    -0.22900
H1827       H  0.77549278  0.68337238  0.44788832     0.08200
C1828       C  0.78664106  0.64863126  0.44593946     0.04600
C1829       C  0.77747874  0.62880341  0.44146766    -0.20100
C1830       C  0.76695868  0.61956959  0.40358932    -0.12400
C1831       C  0.76513714  0.63067212  0.36995324     0.13300
C1832       C  0.77451745  0.65054155  0.37444945    -0.22800
C1833       C  0.79785699  0.65791246  0.48695485    -0.05900
H1834       H  0.77876678  0.62047850  0.46758187     0.14800
C1835       C  0.75404381  0.62196242  0.32836350    -0.16100
H1836       H  0.77371410  0.65913093  0.34834017     0.09100
H1837       H  0.78785361  0.71348244  0.49761715     0.07000
H1838       H  0.77934479  0.71883394  0.44798379     0.08200
H1839       H  0.80211635  0.73563741  0.47084960     0.07200
H1840       H  0.81470983  0.67214933  0.34270635     0.02100
H1841       H  0.82418758  0.66959471  0.39437967     0.02600
H1842       H  0.83834474  0.68966291  0.35953383     0.06100
H1843       H  0.79734183  0.64730563  0.51063556     0.05100
H1844       H  0.79191384  0.66595877  0.50338508    -0.00700
H1845       H  0.81297871  0.66780568  0.47840797     0.00800
H1846       H  0.73879907  0.61232605  0.33630397     0.04500
H1847       H  0.75986445  0.61398087  0.31109183     0.06400
H1848       H  0.75481760  0.63289264  0.30534592     0.07300
C1849       C  0.84027250  0.88656388  0.54736159    -0.22300
C1850       C  0.83148917  0.87201684  0.51620400     0.09600
C1851       C  0.81452669  0.86865613  0.49569591     0.10000
C1852       C  0.80662606  0.87986210  0.50713937    -0.17300
C1853       C  0.81505501  0.89416016  0.53915234    -0.27700
C1854       C  0.83217614  0.89759780  0.55958899     0.18400
C1855       C  0.83972651  0.85985672  0.50637968     0.12300
C1856       C  0.80443755  0.85286076  0.46270909    -0.12000
H1857       H  0.79343067  0.87709742  0.49181740     0.12600
C1858       C  0.84177061  0.91182909  0.59602500    -0.22900
H1859       H  0.85321945  0.88892205  0.56323093     0.08200
C1860       C  0.85148941  0.86331284  0.46959896     0.04600
C1861       C  0.85646566  0.84979073  0.45744188    -0.20100
C1862       C  0.85002652  0.83280245  0.48131397    -0.12400
C1863       C  0.83944775  0.83019802  0.52054978     0.13300
C1864       C  0.83437924  0.84375948  0.53227518    -0.22800
C1865       C  0.85852264  0.88115829  0.44282835    -0.05900
H1866       H  0.86496662  0.85232509  0.42810430     0.14800
C1867       C  0.83302928  0.81316621  0.55000432    -0.16100
H1868       H  0.82557462  0.84147478  0.56097237     0.09100
H1869       H  0.85635582  0.92263975  0.58557464     0.07000
H1870       H  0.84279738  0.90444965  0.62564524     0.08200
H1871       H  0.83412404  0.91925194  0.60583577     0.07200
H1872       H  0.80045354  0.83903880  0.47827462     0.02100
H1873       H  0.81385999  0.85512393  0.43422080     0.02600
H1874       H  0.79124443  0.85209953  0.45017975     0.06100
H1875       H  0.86771622  0.88173884  0.41518095     0.05100
H1876       H  0.86696882  0.89373402  0.46409168    -0.00700
H1877       H  0.84632737  0.88193090  0.42890102     0.00800
H1878       H  0.84553167  0.81218217  0.56093931     0.04500
H1879       H  0.82279358  0.80002205  0.53237094     0.06400
H1880       H  0.82572830  0.81411978  0.57992700     0.07300
C1881       C  0.88169225  0.85004253  0.97602825    -0.22300
C1882       C  0.86253579  0.83940959  0.98841753     0.09600
C1883       C  0.85326539  0.81945429  0.98842423     0.10000
C1884       C  0.86330609  0.81050171  0.97549258    -0.17300
C1885       C  0.88244270  0.82094082  0.96193936    -0.27700
C1886       C  0.89184020  0.84109146  0.96272882     0.18400
C1887       C  0.85210989  0.84916497  0.00133598     0.12300
C1888       C  0.83265172  0.80757244  0.00164092    -0.12000
H1889       H  0.85597062  0.79512249  0.97555615     0.12600
C1890       C  0.91228515  0.85332267  0.94874995    -0.22900
H1891       H  0.88863921  0.86539495  0.97642175     0.08200
C1892       C  0.85066774  0.85313394  0.04571049     0.04600
C1893       C  0.83775090  0.85897908  0.05753151    -0.20100
C1894       C  0.82633301  0.86110435  0.02587828    -0.12400
C1895       C  0.82936507  0.85904972  0.98078633     0.13300
C1896       C  0.84190081  0.85264379  0.96925516    -0.22800
C1897       C  0.86229224  0.85055832  0.08066087    -0.05900
H1898       H  0.83589200  0.86093063  0.09202980     0.14800
C1899       C  0.82009179  0.86379352  0.94390175    -0.16100
H1900       H  0.84348299  0.85001573  0.93501257     0.09100
H1901       H  0.91701281  0.86867458  0.95067338     0.07000
H1902       H  0.91403541  0.85009270  0.91419908     0.08200
H1903       H  0.92167193  0.85074795  0.97062331     0.07200
H1904       H  0.82366712  0.81062438  0.97953405     0.02100
H1905       H  0.83074210  0.81088270  0.03598598     0.02600
H1906       H  0.82756858  0.79214287  0.99964350     0.06100
H1907       H  0.85945949  0.85431014  0.11378600     0.05100
H1908       H  0.87766893  0.85984558  0.07339103    -0.00700
H1909       H  0.85887928  0.83555947  0.08148930     0.00800
H1910       H  0.83124716  0.87386351  0.92099320     0.04500
H1911       H  0.81221701  0.87082320  0.95512287     0.06400
H1912       H  0.81030089  0.85068103  0.92555198     0.07300
C1913       C  0.87674788  0.76141034  0.13240227    -0.22300
C1914       C  0.89296696  0.76888463  0.15896929     0.09600
C1915       C  0.91082130  0.77437785  0.14003890     0.10000
C1916       C  0.91221067  0.77325521  0.09425832    -0.17300
C1917       C  0.89612946  0.76687599  0.06715321    -0.27700
C1918       C  0.87800192  0.76001290  0.08680333     0.18400
C1919       C  0.89100150  0.77242283  0.20577827     0.12300
C1920       C  0.92843913  0.78208422  0.16801411    -0.12000
H1921       H  0.92607138  0.77834690  0.07942925     0.12600
C1922       C  0.85963899  0.75093039  0.06114280    -0.22900
H1923       H  0.86302238  0.75693925  0.14735340     0.08200
C1924       C  0.89132091  0.78916804  0.21861430     0.04600
C1925       C  0.88802778  0.79157197  0.26260577    -0.20100
C1926       C  0.88431834  0.77760134  0.29443590    -0.12400
C1927       C  0.88451275  0.76094947  0.28153721     0.13300
C1928       C  0.88782946  0.75859956  0.23721357    -0.22800
C1929       C  0.89498645  0.80446100  0.18570533    -0.05900
H1930       H  0.88799565  0.80438978  0.27190004     0.14800
C1931       C  0.88153710  0.74572248  0.31393585    -0.16100
H1932       H  0.88771383  0.74582172  0.22682378     0.09100
H1933       H  0.85335360  0.76026741  0.06195470     0.07000
H1934       H  0.84943469  0.73708601  0.07631614     0.08200
H1935       H  0.86137896  0.74785327  0.02657916     0.07200
H1936       H  0.92670339  0.77126537  0.19257808     0.02100
H1937       H  0.93081726  0.79506856  0.18542302     0.02600
H1938       H  0.94127787  0.78580814  0.14800825     0.06100
H1939       H  0.89489004  0.81672739  0.20132415     0.05100
H1940       H  0.88381874  0.79869224  0.15993014    -0.00700
H1941       H  0.90911242  0.80971460  0.17012885     0.00800
H1942       H  0.86692661  0.73896878  0.32766032     0.04500
H1943       H  0.89215886  0.75197793  0.34083121     0.06400
H1944       H  0.88322714  0.73434811  0.29828127     0.07300
C1945       C  0.87364402  0.78865214  0.72666897    -0.22300
C1946       C  0.86747941  0.77081478  0.70796467     0.09600
C1947       C  0.86586928  0.75591115  0.73458045     0.10000
C1948       C  0.87113804  0.75945427  0.77909713    -0.17300
C1949       C  0.87788692  0.77754436  0.79782476    -0.27700
C1950       C  0.87857924  0.79220787  0.77118966     0.18400
C1951       C  0.86386925  0.76867041  0.65990352     0.12300
C1952       C  0.85844630  0.73626283  0.71618553    -0.12000
H1953       H  0.87038174  0.74809419  0.79905746     0.12600
C1954       C  0.88427823  0.81165057  0.78888821    -0.22900
H1955       H  0.87490856  0.80003426  0.70588064     0.08200
C1956       C  0.84884623  0.77010464  0.64072645     0.04600
C1957       C  0.84757229  0.77049270  0.59478547    -0.20100
C1958       C  0.86098532  0.76952741  0.56731477    -0.12400
C1959       C  0.87552868  0.76714688  0.58680155     0.13300
C1960       C  0.87682503  0.76693220  0.63277611    -0.22800
C1961       C  0.83411673  0.77119196  0.66866589    -0.05900
H1962       H  0.83628487  0.77209208  0.58033389     0.14800
C1963       C  0.88963748  0.76455909  0.55987872    -0.16100
H1964       H  0.88836766  0.76591497  0.64778237     0.09100
H1965       H  0.88236332  0.82053674  0.76407166     0.07000
H1966       H  0.89953539  0.81929578  0.79822967     0.08200
H1967       H  0.87530044  0.81031881  0.81769601     0.07200
H1968       H  0.86799044  0.73651566  0.68982947     0.02100
H1969       H  0.84396881  0.73090893  0.70251243     0.02600
H1970       H  0.85754680  0.72614934  0.74180993     0.06100
H1971       H  0.82293507  0.77148560  0.64832328     0.05100
H1972       H  0.84084243  0.78426700  0.68894444    -0.00700
H1973       H  0.82713154  0.75860370  0.69053030     0.00800
H1974       H  0.89894559  0.76148635  0.58082182     0.04500
H1975       H  0.89904180  0.77768398  0.54130376     0.06400
H1976       H  0.88196612  0.75246371  0.53686037     0.07300
C1977       C  0.70624981  0.49124198  0.88194126    -0.22300
C1978       C  0.69935435  0.49898166  0.85100724     0.09600
C1979       C  0.71194735  0.51648886  0.83108663     0.10000
C1980       C  0.73124214  0.52594171  0.84264269    -0.17300
C1981       C  0.73837123  0.51863429  0.87463494    -0.27700
C1982       C  0.72555640  0.50081700  0.89429883     0.18400
C1983       C  0.67862419  0.48965102  0.84293953     0.12300
C1984       C  0.70489360  0.52552593  0.79860181    -0.12000
H1985       H  0.74069869  0.53944333  0.82716514     0.12600
C1986       C  0.73172988  0.49181439  0.92892362    -0.22900
H1987       H  0.69632724  0.47787060  0.89732460     0.08200
C1988       C  0.66990470  0.47754252  0.80668541     0.04600
C1989       C  0.65082369  0.47158044  0.79682282    -0.20100
C1990       C  0.64050905  0.47780485  0.82198270    -0.12400
C1991       C  0.64893846  0.48885552  0.86005369     0.13300
C1992       C  0.66789594  0.49461972  0.87001708    -0.22800
C1993       C  0.68093539  0.47155827  0.77755588    -0.05900
H1994       H  0.64442156  0.46323307  0.76749372     0.14800
C1995       C  0.63847937  0.49508927  0.89045385    -0.16100
H1996       H  0.67462218  0.50373958  0.89816510     0.09100
H1997       H  0.71975425  0.47795217  0.94010092     0.07000
H1998       H  0.73719765  0.50119824  0.95817297     0.08200
H1999       H  0.74289077  0.48918593  0.91547920     0.07200
H2000       H  0.69407113  0.52807080  0.81441489     0.02100
H2001       H  0.69839468  0.51606735  0.76984445     0.02600
H2002       H  0.71658834  0.53935649  0.78645839     0.06100
H2003       H  0.67199249  0.46216662  0.75048107     0.05100
H2004       H  0.68622826  0.46371569  0.79726763    -0.00700
H2005       H  0.69324226  0.48420201  0.76268532     0.00800
H2006       H  0.63905836  0.49051322  0.92448895     0.04500
H2007       H  0.62325846  0.48883761  0.88182056     0.06400
H2008       H  0.64534967  0.51079995  0.88978002     0.07300
C2009       C  0.86061034  0.64890575  0.94262080    -0.22300
C2010       C  0.86297152  0.65962783  0.90463641     0.09600
C2011       C  0.85558036  0.65030016  0.86429169     0.10000
C2012       C  0.84582073  0.63041009  0.86288638    -0.17300
C2013       C  0.84263688  0.61962968  0.90115127    -0.27700
C2014       C  0.85043052  0.62896573  0.94145916     0.18400
C2015       C  0.87151996  0.68047423  0.90854523     0.12300
C2016       C  0.85728692  0.66132360  0.82316735    -0.12000
H2017       H  0.83990656  0.62321152  0.83207399     0.12600
C2018       C  0.84849077  0.61840476  0.98354697    -0.22900
H2019       H  0.86630605  0.65614581  0.97355723     0.08200
C2020       C  0.86032622  0.68831044  0.92152632     0.04600
C2021       C  0.86862278  0.70804137  0.92426958    -0.20100
C2022       C  0.88801878  0.72041228  0.91462961    -0.12400
C2023       C  0.89921994  0.71241189  0.90101733     0.13300
C2024       C  0.89075287  0.69251762  0.89813469    -0.22800
C2025       C  0.83951994  0.67579712  0.93234045    -0.05900
H2026       H  0.85974482  0.71376732  0.93443651     0.14800
C2027       C  0.92001855  0.72448768  0.88973567    -0.16100
H2028       H  0.89915356  0.68627607  0.88780754     0.09100
H2029       H  0.84067780  0.62193413  0.00818467     0.07000
H2030       H  0.86285740  0.62274359  0.99662989     0.08200
H2031       H  0.84085559  0.60279481  0.97917325     0.07200
H2032       H  0.87252289  0.67101641  0.81529520     0.02100
H2033       H  0.85020722  0.66980550  0.82812948     0.02600
H2034       H  0.85049181  0.65180957  0.79455205     0.06100
H2035       H  0.83275800  0.68422099  0.94160087     0.05100
H2036       H  0.83787289  0.66637933  0.96035561    -0.00700
H2037       H  0.83183899  0.66696952  0.90338190     0.00800
H2038       H  0.92632685  0.71573595  0.87969943     0.04500
H2039       H  0.92805817  0.73296509  0.91879173     0.06400
H2040       H  0.92182431  0.73405735  0.86191760     0.07300
C2041       C  0.80423094  0.47210507  0.83966079    -0.22300
C2042       C  0.81837646  0.47743693  0.80762850     0.09600
C2043       C  0.82717540  0.49591187  0.79003973     0.10000
C2044       C  0.82240851  0.50900277  0.80680479    -0.17300
C2045       C  0.80930261  0.50425150  0.84144974    -0.27700
C2046       C  0.79973728  0.48527490  0.85752603     0.18400
C2047       C  0.82601058  0.46467289  0.79837037     0.12300
C2048       C  0.84226439  0.50206754  0.75505854    -0.12000
H2049       H  0.82962184  0.52336488  0.79398749     0.12600
C2050       C  0.78586081  0.47834637  0.89539508    -0.22900
H2051       H  0.79762890  0.45787497  0.85313622     0.08200
C2052       C  0.83953492  0.46437727  0.82676917     0.04600
C2053       C  0.84786592  0.45354958  0.81556401    -0.20100
C2054       C  0.84334338  0.44312759  0.77614758    -0.12400
C2055       C  0.82911866  0.44284817  0.74841974     0.13300
C2056       C  0.82066423  0.45367781  0.76001148    -0.22800
C2057       C  0.84570876  0.47605085  0.86831824    -0.05900
H2058       H  0.85844946  0.45369774  0.83746001     0.14800
C2059       C  0.82309936  0.43176756  0.70606928    -0.16100
H2060       H  0.81019669  0.45398964  0.73855050     0.09100
H2061       H  0.79096037  0.47233328  0.92117646     0.07000
H2062       H  0.77174910  0.46697837  0.88365391     0.08200
H2063       H  0.78393210  0.48934894  0.91154397     0.07200
H2064       H  0.83619796  0.49302149  0.72546484     0.02100
H2065       H  0.85435770  0.50069941  0.76745154     0.02600
H2066       H  0.84785870  0.51707155  0.74519602     0.06100
H2067       H  0.85667949  0.47444572  0.88639374     0.05100
H2068       H  0.83331746  0.47149121  0.89047819    -0.00700
H2069       H  0.85182918  0.49130470  0.86019754     0.00800
H2070       H  0.81705905  0.41642159  0.71297724     0.04500
H2071       H  0.83548721  0.43686064  0.68362546     0.06400
H2072       H  0.81199472  0.43341574  0.68875755     0.07300
C2073       C  0.79385396  0.58167433  0.69251455    -0.22300
C2074       C  0.79045283  0.56616144  0.66632034     0.09600
C2075       C  0.79247229  0.55136306  0.68444210     0.10000
C2076       C  0.79761405  0.55230831  0.72872483    -0.17300
C2077       C  0.80052073  0.56757060  0.75567186    -0.27700
C2078       C  0.79870499  0.58254777  0.73706305     0.18400
C2079       C  0.78385552  0.56520838  0.62055623     0.12300
C2080       C  0.78868284  0.53431535  0.65740667    -0.12000
H2081       H  0.79886942  0.54075529  0.74264959     0.12600
C2082       C  0.80213014  0.59966379  0.76330147    -0.22900
H2083       H  0.79235757  0.59300414  0.67807629     0.08200
C2084       C  0.76499791  0.56052888  0.61147813     0.04600
C2085       C  0.75893675  0.55848490  0.56774998    -0.20100
C2086       C  0.77120736  0.56091530  0.53255236    -0.12400
C2087       C  0.79037630  0.56623414  0.54184689     0.13300
C2088       C  0.79640867  0.56832355  0.58581993    -0.22800
C2089       C  0.75107934  0.55717303  0.64792447    -0.05900
H2090       H  0.74435477  0.55472364  0.56111797     0.14800
C2091       C  0.80445855  0.56916784  0.50615808    -0.16100
H2092       H  0.81090961  0.57206430  0.59330328     0.09100
H2093       H  0.79128574  0.59541666  0.78959999     0.07000
H2094       H  0.80117416  0.61035886  0.74257116     0.08200
H2095       H  0.81658417  0.60655918  0.77782351     0.07200
H2096       H  0.79876067  0.53880440  0.62938018     0.02100
H2097       H  0.77388078  0.52718409  0.64467534     0.02600
H2098       H  0.79044765  0.52381786  0.67701061     0.06100
H2099       H  0.73676340  0.55315887  0.63499399     0.05100
H2100       H  0.75619079  0.57028529  0.66772094    -0.00700
H2101       H  0.74958604  0.54551435  0.66946357     0.00800
H2102       H  0.81849786  0.57260025  0.51983191     0.04500
H2103       H  0.80680484  0.58119949  0.48484558     0.06400
H2104       H  0.79907679  0.55603862  0.48623164     0.07300
C2105       C  0.77826039  0.57820355  0.09188310    -0.22300
C2106       C  0.77183933  0.56307192  0.12157923     0.09600
C2107       C  0.76907285  0.54542227  0.10715378     0.10000
C2108       C  0.77357398  0.54353932  0.06366228    -0.17300
C2109       C  0.78022460  0.55869809  0.03374726    -0.27700
C2110       C  0.78240311  0.57623549  0.04798554     0.18400
C2111       C  0.76785895  0.56589759  0.16758902     0.12300
C2112       C  0.76095737  0.52845869  0.13733738    -0.12000
H2113       H  0.77164488  0.53001726  0.05274929     0.12600
C2114       C  0.78966869  0.59309140  0.01772517    -0.22900
H2115       H  0.78014264  0.59164149  0.10327656     0.08200
C2116       C  0.78107713  0.56960020  0.20150553     0.04600
C2117       C  0.77607909  0.57085959  0.24498867    -0.20100
C2118       C  0.75837259  0.56906249  0.25535431    -0.12400
C2119       C  0.74581814  0.56695755  0.22051627     0.13300
C2120       C  0.75055394  0.56488433  0.17731115    -0.22800
C2121       C  0.80051916  0.57243639  0.19176316    -0.05900
H2122       H  0.78595210  0.57284643  0.27115912     0.14800
C2123       C  0.72779948  0.56770143  0.22662393    -0.16100
H2124       H  0.74075143  0.56269962  0.15079995     0.09100
H2125       H  0.79133280  0.60583942  0.03502744     0.07000
H2126       H  0.77949987  0.58989021  0.99031931     0.08200
H2127       H  0.80377633  0.59660886  0.00439626     0.07200
H2128       H  0.74665050  0.52515681  0.14880365     0.02100
H2129       H  0.77030671  0.53138714  0.16627453     0.02600
H2130       H  0.75946442  0.51568303  0.12052711     0.06100
H2131       H  0.80916422  0.57540914  0.22208054     0.05100
H2132       H  0.80822216  0.58465956  0.16912062    -0.00700
H2133       H  0.79930232  0.55958694  0.17615072     0.00800
H2134       H  0.72819147  0.57877120  0.20469233     0.04500
H2135       H  0.72584730  0.57153728  0.26026517     0.06400
H2136       H  0.71533300  0.55383417  0.21742816     0.07300
C2137       C  0.17378439  0.55982611  0.22439816    -0.22300
C2138       C  0.16355541  0.54246019  0.20218993     0.09600
C2139       C  0.14425489  0.53541752  0.19191456     0.10000
C2140       C  0.13564523  0.54595491  0.20365575    -0.17300
C2141       C  0.14569904  0.56339541  0.22598298    -0.27700
C2142       C  0.16506683  0.57028417  0.23719326     0.18400
C2143       C  0.17310227  0.53173643  0.18913560     0.12300
C2144       C  0.13270584  0.51672868  0.16841770    -0.12000
H2145       H  0.12084254  0.54048152  0.19512507     0.12600
C2146       C  0.17684577  0.58790785  0.26424713    -0.22900
H2147       H  0.18858437  0.56507041  0.23256020     0.08200
C2148       C  0.18138807  0.53415968  0.14730096     0.04600
C2149       C  0.18758316  0.52175758  0.13337795    -0.20100
C2150       C  0.18533389  0.50654116  0.15979297    -0.12400
C2151       C  0.17791425  0.50483423  0.20297177     0.13300
C2152       C  0.17197876  0.51752311  0.21698037    -0.22800
C2153       C  0.18308364  0.54947114  0.11673300    -0.05900
H2154       H  0.19339793  0.52350427  0.10055696     0.14800
C2155       C  0.17583812  0.48963554  0.23446011    -0.16100
H2156       H  0.16563201  0.51584817  0.24919577     0.09100
H2157       H  0.18882216  0.59864362  0.24410602     0.07000
H2158       H  0.18277399  0.58428295  0.29307048     0.08200
H2159       H  0.16874424  0.59435015  0.27741910     0.07200
H2160       H  0.13235442  0.50513974  0.18826811     0.02100
H2161       H  0.13913985  0.51725326  0.13590900     0.02600
H2162       H  0.11779965  0.51328586  0.16294048     0.06100
H2163       H  0.18980623  0.54939021  0.08502595     0.05100
H2164       H  0.19193499  0.56357855  0.13231154    -0.00700
H2165       H  0.16876430  0.54735862  0.10953660     0.00800
H2166       H  0.17088206  0.49127112  0.26731616     0.04500
H2167       H  0.18978642  0.49045501  0.23891921     0.06400
H2168       H  0.16516506  0.47541425  0.22188519     0.07300
C2169       C  0.09060286  0.56397671  0.92882711    -0.22300
C2170       C  0.10454138  0.56785667  0.96058181     0.09600
C2171       C  0.12189627  0.56930446  0.94783628     0.10000
C2172       C  0.12481235  0.56651584  0.90362434    -0.17300
C2173       C  0.11076719  0.56225292  0.87151253    -0.27700
C2174       C  0.09342790  0.56108435  0.88451577     0.18400
C2175       C  0.10063797  0.56993839  0.00731783     0.12300
C2176       C  0.13733775  0.57376699  0.98102290    -0.12000
H2177       H  0.13813381  0.56750809  0.89418546     0.12600
C2178       C  0.07736257  0.55568648  0.85271014    -0.22900
H2179       H  0.07728564  0.56280971  0.93902647     0.08200
C2180       C  0.10333595  0.58725417  0.02396748     0.04600
C2181       C  0.10143045  0.58912163  0.06929218    -0.20100
C2182       C  0.09685997  0.57404902  0.09853973    -0.12400
C2183       C  0.09311000  0.55631677  0.08122988     0.13300
C2184       C  0.09508200  0.55454993  0.03584828    -0.22800
C2185       C  0.10862412  0.60386598  0.99397790    -0.05900
H2186       H  0.10413650  0.60266867  0.08207901     0.14800
C2187       C  0.08672760  0.53908701  0.10993642    -0.16100
H2188       H  0.09270154  0.54118381  0.02254090     0.09100
H2189       H  0.08179944  0.56648837  0.82633657     0.07000
H2190       H  0.06463557  0.55464180  0.86894909     0.08200
H2191       H  0.07317826  0.54159621  0.83850698     0.07200
H2192       H  0.13206137  0.56249606  0.00646509     0.02100
H2193       H  0.14165267  0.58760474  0.99697816     0.02600
H2194       H  0.15013622  0.57466327  0.96555851     0.06100
H2195       H  0.11043561  0.61644843  0.01233467     0.05100
H2196       H  0.09725035  0.59997677  0.96914637    -0.00700
H2197       H  0.12221277  0.60787927  0.97695739     0.00800
H2198       H  0.08298979  0.52619996  0.09023288     0.04500
H2199       H  0.07390462  0.53630854  0.12889024     0.06400
H2200       H  0.09829523  0.54128473  0.13273974     0.07300
C2201       C  0.08559167  0.53880885  0.42994336    -0.22300
C2202       C  0.09487372  0.55226301  0.46318102     0.09600
C2203       C  0.10596803  0.57164866  0.45238426     0.10000
C2204       C  0.10789445  0.57713713  0.40824549    -0.17300
C2205       C  0.09909653  0.56368693  0.37458493    -0.27700
C2206       C  0.08772880  0.54421524  0.38555884     0.18400
C2207       C  0.09452343  0.54572738  0.50859955     0.12300
C2208       C  0.11598736  0.58649276  0.48744861    -0.12000
H2209       H  0.11657916  0.59203185  0.39984911     0.12600
C2210       C  0.07864839  0.52860913  0.35178759    -0.22900
H2211       H  0.07732419  0.52390957  0.43856392     0.08200
C2212       C  0.07993752  0.54249395  0.53836573     0.04600
C2213       C  0.08131552  0.53790296  0.58215037    -0.20100
C2214       C  0.09696709  0.53645946  0.59670949    -0.12400
C2215       C  0.11148984  0.53952918  0.56628849     0.13300
C2216       C  0.10993540  0.54396769  0.52260525    -0.22800
C2217       C  0.06318008  0.54425754  0.52401820    -0.05900
H2218       H  0.07020112  0.53562697  0.60522702     0.14800
C2219       C  0.12916501  0.53914589  0.57966042    -0.16100
H2220       H  0.12111106  0.54665384  0.49931634     0.09100
H2221       H  0.06294369  0.52108763  0.35562336     0.07000
H2222       H  0.08359911  0.51830537  0.35695611     0.08200
H2223       H  0.08219967  0.53366223  0.31752153     0.07200
H2224       H  0.12632702  0.58380065  0.50515847     0.02100
H2225       H  0.10540973  0.58603355  0.51123402     0.02600
H2226       H  0.12390094  0.60101612  0.47335877     0.06100
H2227       H  0.05307519  0.54137913  0.55146344     0.05100
H2228       H  0.05542077  0.53393463  0.49730973    -0.00700
H2229       H  0.06818732  0.55884723  0.51177592     0.00800
H2230       H  0.12535925  0.52465845  0.59041382     0.04500
H2231       H  0.13653096  0.54945196  0.60666953     0.06400
H2232       H  0.13939654  0.54304614  0.55203547     0.07300
C2233       C  0.83455421  0.37373721  0.27314560    -0.22300
C2234       C  0.82367202  0.36858066  0.31162670     0.09600
C2235       C  0.82087937  0.38221940  0.33378806     0.10000
C2236       C  0.82986220  0.40102593  0.31802542    -0.17300
C2237       C  0.84188608  0.40650868  0.28113727    -0.27700
C2238       C  0.84369990  0.39246968  0.25756777     0.18400
C2239       C  0.81769312  0.34962263  0.33078740     0.12300
C2240       C  0.80867679  0.37693787  0.37438008    -0.12000
H2241       H  0.82821753  0.41164702  0.33574089     0.12600
C2242       C  0.85518646  0.39702165  0.21576224    -0.22900
H2243       H  0.83657619  0.36317540  0.25624740     0.08200
C2244       C  0.80244731  0.33265083  0.31364969     0.04600
C2245       C  0.79898045  0.31503432  0.33020220    -0.20100
C2246       C  0.81076231  0.31411025  0.36267087    -0.12400
C2247       C  0.82569596  0.33120429  0.38056266     0.13300
C2248       C  0.82891067  0.34867430  0.36441630    -0.22800
C2249       C  0.79000792  0.33319233  0.27776927    -0.05900
H2250       H  0.78747580  0.30196149  0.31673791     0.14800
C2251       C  0.83817477  0.33119921  0.41722150    -0.16100
H2252       H  0.84061804  0.36176099  0.37731238     0.09100
H2253       H  0.85360235  0.38402862  0.19992417     0.07000
H2254       H  0.87054440  0.40645069  0.22275437     0.08200
H2255       H  0.85030495  0.40398689  0.19195533     0.07200
H2256       H  0.81476788  0.37209808  0.40051664     0.02100
H2257       H  0.79407385  0.36531256  0.36650238     0.02600
H2258       H  0.80769309  0.38914838  0.38736064     0.06100
H2259       H  0.77858242  0.31871040  0.26844147     0.05100
H2260       H  0.79869220  0.34011615  0.24809820    -0.00700
H2261       H  0.78323168  0.34134218  0.28911746     0.00800
H2262       H  0.84654566  0.32468782  0.40587286     0.04500
H2263       H  0.82924957  0.32318048  0.44576319     0.06400
H2264       H  0.84845440  0.34580350  0.42856607     0.07300
C2265       C  0.85078293  0.51305258  0.09912342    -0.22300
C2266       C  0.86544314  0.53183804  0.09359918     0.09600
C2267       C  0.88142929  0.53941901  0.12148017     0.10000
C2268       C  0.88268642  0.52767585  0.15356285    -0.17300
C2269       C  0.86822147  0.50860957  0.15826981    -0.27700
C2270       C  0.85184049  0.50135935  0.13125763     0.18400
C2271       C  0.86298750  0.54295047  0.05853601     0.12300
C2272       C  0.89695764  0.55983524  0.11757061    -0.12000
H2273       H  0.89506262  0.53332541  0.17472012     0.12600
C2274       C  0.83503161  0.48160932  0.13715805    -0.22900
H2275       H  0.83835762  0.50754376  0.07807605     0.08200
C2276       C  0.86788635  0.54174077  0.01463095     0.04600
C2277       C  0.85988446  0.54702874  0.98054270    -0.20100
C2278       C  0.84723367  0.55350890  0.98973469    -0.12400
C2279       C  0.84405302  0.55670065  0.03373736     0.13300
C2280       C  0.85187422  0.55122037  0.06773804    -0.22800
C2281       C  0.88055082  0.53375409  0.00373987    -0.05900
H2282       H  0.86231534  0.54469728  0.94666400     0.14800
C2283       C  0.83174458  0.56497975  0.04576577    -0.16100
H2284       H  0.84824436  0.55223304  0.10152689     0.09100
H2285       H  0.83904724  0.47085333  0.12870373     0.07000
H2286       H  0.82294898  0.47901929  0.11555935     0.08200
H2287       H  0.82995621  0.47963001  0.17169143     0.07200
H2288       H  0.89092987  0.56923511  0.12296941     0.02100
H2289       H  0.90342275  0.56254046  0.08435737     0.02600
H2290       H  0.90838915  0.56354036  0.14216045     0.06100
H2291       H  0.88277485  0.53364102  0.96775746     0.05100
H2292       H  0.87408671  0.51895782  0.01593722    -0.00700
H2293       H  0.89467348  0.54254339  0.01937727     0.00800
H2294       H  0.81903369  0.55433153  0.06418019     0.04500
H2295       H  0.82696270  0.56958060  0.01659839     0.06400
H2296       H  0.83997509  0.57767150  0.06684498     0.07300
C2297       C  0.90602515  0.45882632  0.45680855    -0.22300
C2298       C  0.89562534  0.46400846  0.48456896     0.09600
C2299       C  0.88755099  0.47444162  0.46745707     0.10000
C2300       C  0.88925409  0.47865690  0.42240818    -0.17300
C2301       C  0.89859515  0.47241394  0.39403584    -0.27700
C2302       C  0.90777259  0.46305146  0.41173815     0.18400
C2303       C  0.89194787  0.45694844  0.53047381     0.12300
C2304       C  0.87644517  0.48038495  0.49642607    -0.12000
H2305       H  0.88229673  0.48590170  0.40885283     0.12600
C2306       C  0.91965147  0.45752299  0.38426058    -0.22900
H2307       H  0.91245038  0.45105791  0.47023175     0.08200
C2308       C  0.87673318  0.43869399  0.54034616     0.04600
C2309       C  0.87363317  0.43235996  0.58398548    -0.20100
C2310       C  0.88533055  0.44380504  0.61853181    -0.12400
C2311       C  0.90032735  0.46241929  0.60849422     0.13300
C2312       C  0.90348798  0.46865482  0.56450017    -0.22800
C2313       C  0.86365051  0.42592705  0.50475138    -0.05900
H2314       H  0.86185230  0.41830205  0.59105736     0.14800
C2315       C  0.91321342  0.47578911  0.64345702    -0.16100
H2316       H  0.91500547  0.48275978  0.55650069     0.09100
H2317       H  0.91301237  0.44183765  0.38391289     0.07000
H2318       H  0.93411622  0.46381021  0.39871733     0.08200
H2319       H  0.92143655  0.46266350  0.34992799     0.07200
H2320       H  0.88575394  0.48974159  0.52308228     0.02100
H2321       H  0.86415501  0.46766202  0.51115203     0.02600
H2322       H  0.87089617  0.48827428  0.47773584     0.06100
H2323       H  0.85234590  0.41214580  0.51811198     0.05100
H2324       H  0.87190907  0.42295359  0.48018932    -0.00700
H2325       H  0.85665872  0.43293396  0.48814483     0.00800
H2326       H  0.92044002  0.46930119  0.66119833     0.04500
H2327       H  0.90478991  0.47905298  0.66689920     0.06400
H2328       H  0.92438706  0.48945935  0.62932420     0.07300
C2329       C  0.87602178  0.41952805  0.96902935    -0.22300
C2330       C  0.88948762  0.43714727  0.98626232     0.09600
C2331       C  0.90403943  0.45055868  0.95889824     0.10000
C2332       C  0.90462208  0.44609943  0.91444838    -0.17300
C2333       C  0.89107967  0.42840703  0.89674754    -0.27700
C2334       C  0.87653415  0.41492051  0.92479593     0.18400
C2335       C  0.88762274  0.44123567  0.03294588     0.12300
C2336       C  0.91877753  0.46962424  0.97658613    -0.12000
H2337       H  0.91574749  0.45651053  0.89344774     0.12600
C2338       C  0.86103979  0.39582908  0.90858904    -0.22900
H2339       H  0.86488557  0.40937666  0.99041964     0.08200
C2340       C  0.87424074  0.44646654  0.04593615     0.04600
C2341       C  0.87219248  0.44919915  0.09066858    -0.20100
C2342       C  0.88319278  0.44682333  0.12290106    -0.12400
C2343       C  0.89630894  0.44111207  0.10985334     0.13300
C2344       C  0.89852994  0.43868457  0.06493319    -0.22800
C2345       C  0.86229788  0.44939963  0.01250955    -0.05900
H2346       H  0.86214110  0.45356448  0.10048847     0.14800
C2347       C  0.90749868  0.43650813  0.14204398    -0.16100
H2348       H  0.90848298  0.43423896  0.05481779     0.09100
H2349       H  0.85042681  0.38775499  0.93460850     0.07000
H2350       H  0.86726189  0.38707319  0.89808451     0.08200
H2351       H  0.85331788  0.39773326  0.88079214     0.07200
H2352       H  0.92680878  0.46769025  0.00360985     0.02100
H2353       H  0.91171818  0.47729191  0.98937364     0.02600
H2354       H  0.92910341  0.47854314  0.95083834     0.06100
H2355       H  0.85275279  0.45376232  0.02817832     0.05100
H2356       H  0.85330266  0.43601642  0.99422570    -0.00700
H2357       H  0.87168578  0.46066912  0.98901390     0.00800
H2358       H  0.90497841  0.42203771  0.13521259     0.04500
H2359       H  0.90339295  0.43650959  0.17668898     0.06400
H2360       H  0.92291512  0.44686224  0.13824228     0.07300
C2361       C  0.97583475  0.52043358  0.22151722    -0.22300
C2362       C  0.98369402  0.53834408  0.24141011     0.09600
C2363       C  0.97144767  0.54443110  0.25812788     0.10000
C2364       C  0.95164761  0.53204939  0.25650984    -0.17300
C2365       C  0.94381670  0.51363625  0.23912391    -0.27700
C2366       C  0.95610296  0.50801527  0.21998545     0.18400
C2367       C  0.00477430  0.55011713  0.24486045     0.12300
C2368       C  0.97921917  0.56358982  0.27949493    -0.12000
H2369       H  0.94228454  0.53641129  0.27103091     0.12600
C2370       C  0.94902484  0.48923986  0.19703287    -0.22900
H2371       H  0.98524637  0.51600915  0.20743091     0.08200
C2372       C  0.01523084  0.54444013  0.27157526     0.04600
C2373       C  0.03517190  0.55456884  0.26962431    -0.20100
C2374       C  0.04503240  0.57040955  0.24211021    -0.12400
C2375       C  0.03458135  0.57672310  0.21706842     0.13300
C2376       C  0.01457314  0.56644402  0.21878965    -0.22800
C2377       C  0.00540228  0.52766655  0.30211344    -0.05900
H2378       H  0.04317639  0.54978697  0.28895620     0.14800
C2379       C  0.04377606  0.59345971  0.18631335    -0.16100
H2380       H  0.00655014  0.57074489  0.19817343     0.09100
H2381       H  0.95369211  0.48054120  0.21544489     0.07000
H2382       H  0.95507730  0.49175320  0.16335377     0.08200
H2383       H  0.93337394  0.48105132  0.19339561     0.07200
H2384       H  0.98757419  0.57497723  0.25533298     0.02100
H2385       H  0.98850896  0.56483754  0.30753040     0.02600
H2386       H  0.96766690  0.56580631  0.29213132     0.06100
H2387       H  0.01577066  0.52572568  0.32191382     0.05100
H2388       H  0.99670549  0.51443938  0.28312609    -0.00700
H2389       H  0.99607106  0.52984905  0.32510496     0.00800
H2390       H  0.03829134  0.58875650  0.15250404     0.04500
H2391       H  0.05944876  0.60029328  0.18493869     0.06400
H2392       H  0.04014202  0.60429097  0.19688914     0.07300
C2393       C  0.79175090  0.51260625  0.32203220    -0.22300
C2394       C  0.79591640  0.50361541  0.35585755     0.09600
C2395       C  0.78870484  0.50286799  0.39838655     0.10000
C2396       C  0.77801251  0.51173972  0.40645303    -0.17300
C2397       C  0.77428966  0.52130335  0.37291934    -0.27700
C2398       C  0.78065767  0.52106002  0.32961716     0.18400
C2399       C  0.80851921  0.49581425  0.34599704     0.12300
C2400       C  0.79233711  0.49276430  0.43520741    -0.12000
H2401       H  0.77305550  0.51171709  0.43952961     0.12600
C2402       C  0.77563046  0.52891194  0.29023560    -0.22900
H2403       H  0.79713297  0.51292135  0.28922905     0.08200
C2404       C  0.80228492  0.47930353  0.32045848     0.04600
C2405       C  0.81543722  0.47386683  0.30751379    -0.20100
C2406       C  0.83474888  0.48449946  0.31963958    -0.12400
C2407       C  0.84069176  0.50056355  0.34741940     0.13300
C2408       C  0.82747218  0.50597477  0.35997914    -0.22800
C2409       C  0.78176519  0.46746847  0.30675257    -0.05900
H2410       H  0.81065915  0.46147518  0.28680806     0.14800
C2411       C  0.86100242  0.51270846  0.36258701    -0.16100
H2412       H  0.83207358  0.51862991  0.37968360     0.09100
H2413       H  0.76939320  0.51785748  0.26426728     0.07000
H2414       H  0.78868199  0.54133752  0.27701122     0.08200
H2415       H  0.76489312  0.53308353  0.29730436     0.07200
H2416       H  0.80784141  0.49956863  0.44155734     0.02100
H2417       H  0.78668864  0.47766822  0.42612848     0.02600
H2418       H  0.78532396  0.49317200  0.46617832     0.06100
H2419       H  0.77918663  0.45477921  0.28765648     0.05100
H2420       H  0.77763831  0.47596805  0.28590020    -0.00700
H2421       H  0.77255276  0.46255152  0.33638755     0.00800
H2422       H  0.86289736  0.52470915  0.38350254     0.04500
H2423       H  0.87058552  0.51884959  0.33380592     0.06400
H2424       H  0.86527353  0.50406219  0.38248561     0.07300
C2425       C  0.01682525  0.81967771  0.73705096    -0.22300
C2426       C  0.99814545  0.81004989  0.72114664     0.09600
C2427       C  0.99478861  0.80852670  0.67549949     0.10000
C2428       C  0.01028095  0.81771513  0.64673171    -0.17300
C2429       C  0.02896221  0.82868307  0.66275202    -0.27700
C2430       C  0.03234562  0.82879762  0.70845142     0.18400
C2431       C  0.98255310  0.80446852  0.75302493     0.12300
C2432       C  0.97485717  0.79786569  0.65732441    -0.12000
H2433       H  0.00762653  0.81743464  0.61174860     0.12600
C2434       C  0.05198910  0.83840214  0.72840297    -0.22900
H2435       H  0.01927848  0.82067470  0.77222897     0.08200
C2436       C  0.97611647  0.78849103  0.78052284     0.04600
C2437       C  0.96258002  0.78519222  0.81320284    -0.20100
C2438       C  0.95548808  0.79760838  0.81881630    -0.12400
C2439       C  0.96210023  0.81369114  0.79101404     0.13300
C2440       C  0.97544274  0.81677382  0.75838154    -0.22800
C2441       C  0.98359314  0.77505669  0.77537631    -0.05900
H2442       H  0.95759207  0.77296299  0.83454649     0.14800
C2443       C  0.95609690  0.82833268  0.79685620    -0.16100
H2444       H  0.98085039  0.82922892  0.73754771     0.09100
H2445       H  0.05344359  0.82816305  0.74974426     0.07000
H2446       H  0.05410751  0.85061808  0.74877803     0.08200
H2447       H  0.06348986  0.84337835  0.70362286     0.07200
H2448       H  0.96658608  0.80449360  0.66877733     0.02100
H2449       H  0.96772546  0.78289371  0.66862017     0.02600
H2450       H  0.97479724  0.79790461  0.62082321     0.06100
H2451       H  0.97689604  0.76314044  0.79917869     0.05100
H2452       H  0.99919780  0.78272707  0.78097706    -0.00700
H2453       H  0.98054423  0.76902968  0.74166582     0.00800
H2454       H  0.96394403  0.84062498  0.77443368     0.04500
H2455       H  0.95904486  0.83383513  0.83102936     0.06400
H2456       H  0.94072753  0.82202521  0.78945828     0.07300
C2457       C  0.99369528  0.86549027  0.51204199    -0.22300
C2458       C  0.98412065  0.84978392  0.48421590     0.09600
C2459       C  0.99378924  0.84084850  0.46743470     0.10000
C2460       C  0.01245030  0.84699526  0.48129160    -0.17300
C2461       C  0.02179935  0.86197746  0.51151328    -0.27700
C2462       C  0.01258135  0.87203172  0.52510449     0.18400
C2463       C  0.96362987  0.84203797  0.47495790     0.12300
C2464       C  0.98413647  0.82437797  0.43602580    -0.12000
H2465       H  0.01936280  0.83932953  0.47013945     0.12600
C2466       C  0.02213209  0.88984188  0.55253555    -0.22900
H2467       H  0.98633016  0.87260463  0.52390199     0.08200
C2468       C  0.94960307  0.82762755  0.50160102     0.04600
C2469       C  0.93045436  0.81898625  0.48904171    -0.20100
C2470       C  0.92498379  0.82425515  0.45033452    -0.12400
C2471       C  0.93900502  0.83898357  0.42402266     0.13300
C2472       C  0.95818266  0.84784773  0.43702488    -0.22800
C2473       C  0.95491496  0.82093367  0.54249081    -0.05900
H2474       H  0.91969101  0.80762129  0.50888294     0.14800
C2475       C  0.93448971  0.84492890  0.38091714    -0.16100
H2476       H  0.96905105  0.85877022  0.41641100     0.09100
H2477       H  0.01533017  0.88701424  0.58542022     0.07000
H2478       H  0.02051452  0.90112678  0.53619860     0.08200
H2479       H  0.03759911  0.89562808  0.55643802     0.07200
H2480       H  0.97984641  0.82893877  0.40589588     0.02100
H2481       H  0.97129744  0.81256390  0.45165269     0.02600
H2482       H  0.99367155  0.81894490  0.42614790     0.06100
H2483       H  0.94219314  0.80945733  0.55933630     0.05100
H2484       H  0.96237902  0.83294200  0.56580103    -0.00700
H2485       H  0.96443652  0.81533155  0.53390867     0.00800
H2486       H  0.93900964  0.86023493  0.38225637     0.04500
H2487       H  0.91916694  0.83689941  0.37252265     0.06400
H2488       H  0.94237564  0.84264801  0.35405636     0.07300
C2489       C  0.14721928  0.80556174  0.56486137    -0.22300
C2490       C  0.12949208  0.79623182  0.58579161     0.09600
C2491       C  0.12366055  0.77884306  0.60732904     0.10000
C2492       C  0.13609921  0.77154526  0.60885268    -0.17300
C2493       C  0.15425666  0.78129549  0.58938173    -0.27700
C2494       C  0.15958660  0.79828101  0.56591803     0.18400
C2495       C  0.11783203  0.80557745  0.58574345     0.12300
C2496       C  0.10452079  0.76826956  0.62936669    -0.12000
H2497       H  0.13187821  0.75848509  0.62661176     0.12600
C2498       C  0.17788575  0.80892921  0.54047648    -0.22900
H2499       H  0.15149040  0.81874761  0.54766492     0.08200
C2500       C  0.12171031  0.82037791  0.61550129     0.04600
C2501       C  0.11251033  0.83091558  0.61032342    -0.20100
C2502       C  0.09936553  0.82689283  0.57635036    -0.12400
C2503       C  0.09491871  0.81157700  0.54747636     0.13300
C2504       C  0.10420804  0.80107378  0.55265441    -0.22800
C2505       C  0.13583460  0.82525705  0.65224361    -0.05900
H2506       H  0.11591171  0.84267364  0.63233745     0.14800
C2507       C  0.08130362  0.80654508  0.50952294    -0.16100
H2508       H  0.10136992  0.78979844  0.52967458     0.09100
H2509       H  0.18680001  0.82328551  0.55483202     0.07000
H2510       H  0.17465541  0.81042444  0.50575055     0.08200
H2511       H  0.18618447  0.80163252  0.54003421     0.07200
H2512       H  0.09311316  0.76447791  0.60468142     0.02100
H2513       H  0.10343601  0.77732398  0.65512674     0.02600
H2514       H  0.10220211  0.75497832  0.64508572     0.06100
H2515       H  0.13705911  0.83708104  0.67280881     0.05100
H2516       H  0.15011082  0.82962731  0.63856312    -0.00700
H2517       H  0.13123714  0.81268211  0.67370693     0.00800
H2518       H  0.08888490  0.80774636  0.47827545     0.04500
H2519       H  0.07506933  0.81584858  0.50694932     0.06400
H2520       H  0.06946704  0.79169494  0.51327373     0.07300
C2521       C  0.16724430  0.67186982  0.69805161    -0.22300
C2522       C  0.17424064  0.66206691  0.67381729     0.09600
C2523       C  0.18750165  0.67154865  0.63998010     0.10000
C2524       C  0.19272940  0.69034701  0.62962052    -0.17300
C2525       C  0.18494721  0.70002634  0.65208586    -0.27700
C2526       C  0.17244172  0.69071635  0.68794420     0.18400
C2527       C  0.16648912  0.64154591  0.68292399     0.12300
C2528       C  0.19602616  0.66176323  0.61461295    -0.12000
H2529       H  0.20258232  0.69729717  0.60275848     0.12600
C2530       C  0.16399319  0.70009827  0.71521870    -0.22900
H2531       H  0.15718329  0.66447960  0.72427127     0.08200
C2532       C  0.17198896  0.63524128  0.72020526     0.04600
C2533       C  0.16258659  0.61573947  0.73005262    -0.20100
C2534       C  0.14774842  0.60227247  0.70337968    -0.12400
C2535       C  0.14321502  0.60864956  0.66411073     0.13300
C2536       C  0.15255611  0.62818711  0.65479356    -0.22800
C2537       C  0.18778920  0.64913914  0.74955252    -0.05900
H2538       H  0.16651095  0.61110452  0.75952661     0.14800
C2539       C  0.12873676  0.59516800  0.63141744    -0.16100
H2540       H  0.14865922  0.63317592  0.62575763     0.09100
H2541       H  0.15491036  0.69074385  0.74216415     0.07000
H2542       H  0.15491412  0.70351486  0.69439896     0.08200
H2543       H  0.17554579  0.71323155  0.73052284     0.07200
H2544       H  0.18466403  0.64920545  0.59717979     0.02100
H2545       H  0.20347915  0.65709468  0.63754964     0.02600
H2546       H  0.20647677  0.67131080  0.58977772     0.06100
H2547       H  0.19062370  0.64187668  0.77685938     0.05100
H2548       H  0.18395623  0.65926110  0.76404225    -0.00700
H2549       H  0.20106641  0.65714400  0.73008022     0.00800
H2550       H  0.12834884  0.60263928  0.60126487     0.04500
H2551       H  0.11425664  0.58822178  0.64590914     0.06400
H2552       H  0.13236369  0.58428080  0.62125971     0.07300
C2553       C  0.13512407  0.67616967  0.35300451    -0.22300
C2554       C  0.12948343  0.67056716  0.39654693     0.09600
C2555       C  0.11754494  0.65116897  0.40621529     0.10000
C2556       C  0.11268540  0.63768031  0.37262663    -0.17300
C2557       C  0.11962679  0.64311325  0.32959828    -0.27700
C2558       C  0.13072762  0.66275177  0.31943740     0.18400
C2559       C  0.13939319  0.68466753  0.43202660     0.12300
C2560       C  0.11078347  0.64467599  0.45241915    -0.12000
H2561       H  0.10418798  0.62271188  0.38047657     0.12600
C2562       C  0.13972183  0.67032344  0.27511920    -0.22900
H2563       H  0.14445266  0.69111368  0.34589785     0.08200
C2564       C  0.15801109  0.68945612  0.44432527     0.04600
C2565       C  0.16746500  0.70312778  0.47690405    -0.20100
C2566       C  0.15874742  0.71200065  0.49835363    -0.12400
C2567       C  0.13989577  0.70696022  0.48678972     0.13300
C2568       C  0.13043233  0.69329179  0.45362190    -0.22800
C2569       C  0.16785044  0.67988577  0.42356781    -0.05900
H2570       H  0.18178631  0.70677177  0.48617622     0.14800
C2571       C  0.12961571  0.71608425  0.50735448    -0.16100
H2572       H  0.11608637  0.68950281  0.44420348     0.09100
H2573       H  0.15539528  0.67921567  0.27898798     0.07000
H2574       H  0.13424864  0.67927746  0.26142232     0.08200
H2575       H  0.13713688  0.65925717  0.25077021     0.07200
H2576       H  0.10232612  0.65108280  0.46405810     0.02100
H2577       H  0.12317358  0.64911310  0.47452917     0.02600
H2578       H  0.10167870  0.62899537  0.45443941     0.06100
H2579       H  0.18217398  0.68496617  0.43790586     0.05100
H2580       H  0.16965699  0.68286572  0.38779197    -0.00700
H2581       H  0.15924497  0.66431685  0.42885920     0.00800
H2582       H  0.12527567  0.72267171  0.48131188     0.04500
H2583       H  0.13844663  0.72735315  0.53124911     0.06400
H2584       H  0.11667588  0.70510944  0.52450698     0.07300
C2585       C  0.20753211  0.71219930  0.10586992    -0.22300
C2586       C  0.19690934  0.70652196  0.14482368     0.09600
C2587       C  0.19741362  0.72032607  0.17364387     0.10000
C2588       C  0.20814292  0.73955838  0.16217746    -0.17300
C2589       C  0.21837519  0.74526937  0.12265680    -0.27700
C2590       C  0.21817090  0.73144423  0.09415303     0.18400
C2591       C  0.18400336  0.68605265  0.15320012     0.12300
C2592       C  0.18618279  0.71469727  0.21583595    -0.12000
H2593       H  0.20817533  0.75019124  0.18361521     0.12600
C2594       C  0.22805955  0.73630143  0.05019398    -0.22900
H2595       H  0.20689913  0.70149702  0.08366915     0.08200
C2596       C  0.16522418  0.67666276  0.13698222     0.04600
C2597       C  0.15268911  0.65787590  0.14969576    -0.20100
C2598       C  0.15845473  0.64822699  0.17848678    -0.12400
C2599       C  0.17785354  0.65719750  0.19145240     0.13300
C2600       C  0.19025230  0.67616271  0.17940544    -0.22800
C2601       C  0.15820088  0.68675917  0.10773316    -0.05900
H2602       H  0.13798068  0.65114350  0.13915835     0.14800
C2603       C  0.18610935  0.64727980  0.21733895    -0.16100
H2604       H  0.20486734  0.68334783  0.19081797     0.09100
H2605       H  0.21740243  0.72898101  0.02377171     0.07000
H2606       H  0.23857226  0.73142234  0.04926625     0.08200
H2607       H  0.23566492  0.75169398  0.04291250     0.07200
H2608       H  0.19096955  0.70683255  0.23706270     0.02100
H2609       H  0.17079672  0.70547616  0.20860326     0.02600
H2610       H  0.18805959  0.72726403  0.23438800     0.06100
H2611       H  0.14309064  0.67738955  0.09816548     0.05100
H2612       H  0.16687815  0.69154850  0.07727781    -0.00700
H2613       H  0.15937214  0.69927890  0.12510967     0.00800
H2614       H  0.19918766  0.64934467  0.20075644     0.04500
H2615       H  0.17640131  0.63174379  0.21956081     0.06400
H2616       H  0.18989929  0.65341409  0.25089042     0.07300
C2617       C  0.33433010  0.84059433  0.18941110    -0.22300
C2618       C  0.34096805  0.82841266  0.17721403     0.09600
C2619       C  0.32904822  0.81176764  0.15336337     0.10000
C2620       C  0.31075507  0.80788936  0.14130979    -0.17300
C2621       C  0.30413456  0.82032052  0.15251093    -0.27700
C2622       C  0.31617736  0.83693596  0.17715124     0.18400
C2623       C  0.36098850  0.83435373  0.18748229     0.12300
C2624       C  0.33572626  0.79826425  0.14026663    -0.12000
H2625       H  0.30171650  0.79525784  0.12230324     0.12600
C2626       C  0.31064628  0.85152666  0.18866617    -0.22900
H2627       H  0.34375967  0.85344694  0.20742565     0.08200
C2628       C  0.37570970  0.84585550  0.15807809     0.04600
C2629       C  0.39466644  0.85353530  0.17137681    -0.20100
C2630       C  0.39940836  0.85071141  0.21411409    -0.12400
C2631       C  0.38450336  0.83864439  0.24319380     0.13300
C2632       C  0.36548176  0.83050326  0.22920984    -0.22800
C2633       C  0.37142832  0.85088356  0.11349060    -0.05900
H2634       H  0.40588988  0.86263035  0.14872844     0.14800
C2635       C  0.38828135  0.83507792  0.28967957    -0.16100
H2636       H  0.35399262  0.82182071  0.25165087     0.09100
H2637       H  0.32227784  0.86395165  0.20598314     0.07000
H2638       H  0.29810275  0.84519778  0.21081682     0.08200
H2639       H  0.30736874  0.85686524  0.15828718     0.07200
H2640       H  0.33932871  0.79290211  0.17011271     0.02100
H2641       H  0.34853646  0.80561620  0.11911202     0.02600
H2642       H  0.32461899  0.78589988  0.12174131     0.06100
H2643       H  0.38463457  0.86025868  0.09482539     0.05100
H2644       H  0.36335721  0.85845223  0.11731027    -0.00700
H2645       H  0.36283845  0.83783282  0.09384473     0.00800
H2646       H  0.39586887  0.84870416  0.30793596     0.04500
H2647       H  0.39694630  0.82804853  0.28950958     0.06400
H2648       H  0.37488988  0.82566740  0.30768938     0.07300
C2649       C  0.21426206  0.79640979  0.30888056    -0.22300
C2650       C  0.22982938  0.80896030  0.33459225     0.09600
C2651       C  0.24657649  0.82306201  0.31421479     0.10000
C2652       C  0.24751703  0.82393110  0.26821895    -0.17300
C2653       C  0.23219354  0.81084747  0.24217116    -0.27700
C2654       C  0.21513601  0.79715902  0.26294050     0.18400
C2655       C  0.22873174  0.80548244  0.38238914     0.12300
C2656       C  0.26343076  0.83710364  0.34092673    -0.12000
H2657       H  0.26054780  0.83454378  0.25256618     0.12600
C2658       C  0.19769259  0.78337865  0.23739309    -0.22900
H2659       H  0.20151395  0.78554819  0.32500950     0.08200
C2660       C  0.21633633  0.80823610  0.40969299     0.04600
C2661       C  0.21342478  0.80155786  0.45305904    -0.20100
C2662       C  0.22255749  0.79209955  0.46972888    -0.12400
C2663       C  0.23604920  0.79057796  0.44281610     0.13300
C2664       C  0.23875581  0.79715644  0.39945569    -0.22800
C2665       C  0.20608841  0.81807255  0.39298757    -0.05900
H2666       H  0.20342056  0.80316933  0.47342337     0.14800
C2667       C  0.24768280  0.78202323  0.45872661    -0.16100
H2668       H  0.24823930  0.79512617  0.37802702     0.09100
H2669       H  0.19355750  0.79125262  0.21440510     0.07000
H2670       H  0.18537078  0.77477747  0.25931568     0.08200
H2671       H  0.20050823  0.77332787  0.21889564     0.07200
H2672       H  0.26904756  0.82961078  0.36081990     0.02100
H2673       H  0.25906777  0.84504076  0.36314594     0.02600
H2674       H  0.27516855  0.84752096  0.31970252     0.06100
H2675       H  0.19734249  0.81951724  0.41907549     0.05100
H2676       H  0.19646678  0.80988832  0.36553683    -0.00700
H2677       H  0.21662627  0.83251037  0.38123887     0.00800
H2678       H  0.23833842  0.76662418  0.46506874     0.04500
H2679       H  0.25553315  0.78937819  0.48904883     0.06400
H2680       H  0.25837656  0.78345445  0.43398941     0.07300
C2681       C  0.20480573  0.79743100  0.90312211    -0.22300
C2682       C  0.20221449  0.78100912  0.88205417     0.09600
C2683       C  0.20421302  0.76733262  0.90604747     0.10000
C2684       C  0.20923263  0.77061208  0.95050725    -0.17300
C2685       C  0.21262929  0.78739679  0.97142263    -0.27700
C2686       C  0.21004980  0.80086921  0.94762371     0.18400
C2687       C  0.19995626  0.77953379  0.83378451     0.12300
C2688       C  0.20188410  0.74967489  0.88426804    -0.12000
H2689       H  0.21117616  0.76028372  0.96870138     0.12600
C2690       C  0.21393951  0.81936214  0.96794069    -0.22900
H2691       H  0.20349450  0.80796531  0.88408135     0.08200
C2692       C  0.18202636  0.76952028  0.81339853     0.04600
C2693       C  0.18102233  0.76740893  0.76747710    -0.20100
C2694       C  0.19757426  0.77531309  0.74130277    -0.12400
C2695       C  0.21560525  0.78590850  0.76236438     0.13300
C2696       C  0.21644378  0.78778640  0.80819691    -0.22800
C2697       C  0.16401960  0.76118813  0.84014669    -0.05900
H2698       H  0.16717282  0.75949348  0.75203725     0.14800
C2699       C  0.23419320  0.79496319  0.73765412    -0.16100
H2700       H  0.23013303  0.79549963  0.82450053     0.09100
H2701       H  0.21199878  0.82849878  0.94390701     0.07000
H2702       H  0.22883472  0.82735551  0.98005990     0.08200
H2703       H  0.20398624  0.81657556  0.99562543     0.07200
H2704       H  0.21241826  0.75363193  0.85731886     0.02100
H2705       H  0.18733248  0.74120395  0.87052113     0.02600
H2706       H  0.20410428  0.74055847  0.90779318     0.06100
H2707       H  0.15115108  0.75385636  0.81910463     0.05100
H2708       H  0.16342582  0.77267878  0.85837206    -0.00700
H2709       H  0.16365796  0.75073553  0.86400651     0.00800
H2710       H  0.24667196  0.80214589  0.75992681     0.04500
H2711       H  0.23492179  0.80593147  0.71486084     0.06400
H2712       H  0.23552676  0.78391782  0.71931329     0.07300
C2713       C  0.99896388  0.86346864  0.97589050    -0.22300
C2714       C  0.00825967  0.85684873  0.00308377     0.09600
C2715       C  0.99811950  0.83817590  0.01952236     0.10000
C2716       C  0.97915795  0.82618000  0.00655358    -0.17300
C2717       C  0.96993711  0.83231668  0.97725648    -0.27700
C2718       C  0.97993235  0.85153798  0.96283639     0.18400
C2719       C  0.02871339  0.86958387  0.01364451     0.12300
C2720       C  0.00746032  0.83080613  0.05018119    -0.12000
H2721       H  0.97175443  0.81166976  0.01830763     0.12600
C2722       C  0.97082775  0.85979989  0.93403256    -0.22900
H2723       H  0.00679797  0.87798065  0.96418815     0.08200
C2724       C  0.04321620  0.87034907  0.98679851     0.04600
C2725       C  0.06234134  0.88179056  0.99941435    -0.20100
C2726       C  0.06746128  0.89249850  0.03856268    -0.12400
C2727       C  0.05270628  0.89184009  0.06510138     0.13300
C2728       C  0.03360428  0.88046987  0.05204724    -0.22800
C2729       C  0.03845932  0.85882494  0.94517426    -0.05900
H2730       H  0.07335127  0.88211266  0.97871658     0.14800
C2731       C  0.05665545  0.90244948  0.10797913    -0.16100
H2732       H  0.02230919  0.87970456  0.07243324     0.09100
H2733       H  0.98028850  0.87531402  0.92922977     0.07000
H2734       H  0.95746845  0.85754416  0.94946303     0.08200
H2735       H  0.96779776  0.85314769  0.90103447     0.07200
H2736       H  0.01219768  0.83960549  0.08043476     0.02100
H2737       H  0.01997857  0.83143035  0.03389619     0.02600
H2738       H  0.99757030  0.81586635  0.05996812     0.06100
H2739       H  0.05145430  0.86095587  0.92802643     0.05100
H2740       H  0.03057458  0.86305500  0.92244582    -0.00700
H2741       H  0.02949016  0.84349749  0.95294317     0.00800
H2742       H  0.04335065  0.89979360  0.12448111     0.04500
H2743       H  0.06538277  0.91795533  0.10202366     0.06400
H2744       H  0.06416800  0.89780536  0.13081339     0.07300
C2745       C  0.20343778  0.90309174  0.09295501    -0.22300
C2746       C  0.19479177  0.88329232  0.09136810     0.09600
C2747       C  0.17483382  0.87207955  0.08793673     0.10000
C2748       C  0.16395536  0.88096730  0.08525644    -0.17300
C2749       C  0.17250293  0.90083795  0.08608209    -0.27700
C2750       C  0.19254622  0.91205827  0.09109959     0.18400
C2751       C  0.20665791  0.87432177  0.09468598     0.12300
C2752       C  0.16504168  0.85071985  0.08623970    -0.12000
H2753       H  0.14865359  0.87229712  0.08137439     0.12600
C2754       C  0.20294809  0.93332962  0.09649720    -0.22900
H2755       H  0.21875849  0.91157845  0.09655843     0.08200
C2756       C  0.21600652  0.87231504  0.05774650     0.04600
C2757       C  0.22492065  0.86142313  0.06134289    -0.20100
C2758       C  0.22426441  0.85226525  0.10081573    -0.12400
C2759       C  0.21560739  0.85500869  0.13832287     0.13300
C2760       C  0.20707658  0.86618742  0.13481864    -0.22800
C2761       C  0.21593685  0.88107379  0.01428594    -0.05900
H2762       H  0.23161115  0.85930187  0.03279192     0.14800
C2763       C  0.21534319  0.84624150  0.18217828    -0.16100
H2764       H  0.20000025  0.86798333  0.16304508     0.09100
H2765       H  0.21237130  0.94012690  0.06775138     0.07000
H2766       H  0.21183265  0.93730706  0.12664069     0.08200
H2767       H  0.19337599  0.93918590  0.10038679     0.07200
H2768       H  0.16773260  0.84521967  0.11710881     0.02100
H2769       H  0.17053516  0.84627017  0.05799321     0.02600
H2770       H  0.14939746  0.84414548  0.08235088     0.06100
H2771       H  0.22362600  0.87787376  0.98860363     0.05100
H2772       H  0.22299141  0.89672395  0.01784088    -0.00700
H2773       H  0.20105768  0.87545621  0.00307423     0.00800
H2774       H  0.20888965  0.85075754  0.20823267     0.04500
H2775       H  0.23010622  0.85066396  0.19237595     0.06400
H2776       H  0.20683346  0.83053761  0.18011752     0.07300
C2777       C  0.13250183  0.92190548  0.85382795    -0.22300
C2778       C  0.12787196  0.90380249  0.83921291     0.09600
C2779       C  0.12875212  0.89097072  0.86869923     0.10000
C2780       C  0.13327889  0.89618756  0.91294877    -0.17300
C2781       C  0.13707957  0.91403929  0.92850790    -0.27700
C2782       C  0.13711225  0.92727230  0.89797644     0.18400
C2783       C  0.12073610  0.89820622  0.79369093     0.12300
C2784       C  0.12442792  0.87160812  0.85362568    -0.12000
H2785       H  0.13347360  0.88606334  0.93568254     0.12600
C2786       C  0.14121924  0.94680334  0.91136522    -0.22900
H2787       H  0.13189266  0.93167768  0.83066034     0.08200
C2788       C  0.10189016  0.89300910  0.78277834     0.04600
C2789       C  0.09594451  0.88900296  0.73893078    -0.20100
C2790       C  0.10836223  0.89010178  0.70536899    -0.12400
C2791       C  0.12728532  0.89506755  0.71660649     0.13300
C2792       C  0.13308942  0.89884134  0.76078804    -0.22800
C2793       C  0.08803099  0.89167737  0.81747957    -0.05900
H2794       H  0.08144337  0.88506580  0.73074882     0.14800
C2795       C  0.14219195  0.89760259  0.68348371    -0.16100
H2796       H  0.14758778  0.90293283  0.76947391     0.09100
H2797       H  0.14005996  0.95483457  0.88323789     0.07000
H2798       H  0.15595732  0.95515371  0.92421908     0.08200
H2799       H  0.13088413  0.94566979  0.93674526     0.07200
H2800       H  0.13466378  0.87308324  0.82762338     0.02100
H2801       H  0.10974663  0.86365389  0.84025356     0.02600
H2802       H  0.12555406  0.86320251  0.88094197     0.06100
H2803       H  0.07372215  0.88697761  0.80349344     0.05100
H2804       H  0.09323876  0.90576069  0.83302161    -0.00700
H2805       H  0.08650822  0.88128340  0.84301756     0.00800
H2806       H  0.15489468  0.91195125  0.68737902     0.04500
H2807       H  0.13764677  0.89654675  0.64895861     0.06400
H2808       H  0.14647913  0.88683678  0.68943762     0.07300
C2809       C  0.11322391  0.89249665  0.36545571    -0.22300
C2810       C  0.09841686  0.88003765  0.33779542     0.09600
C2811       C  0.08233805  0.86415816  0.35565026     0.10000
C2812       C  0.08110925  0.86140500  0.40126194    -0.17300
C2813       C  0.09559394  0.87421431  0.42965726    -0.27700
C2814       C  0.11209992  0.88984807  0.41118023     0.18400
C2815       C  0.09985772  0.88441568  0.29034223     0.12300
C2816       C  0.06636577  0.85031956  0.32656989    -0.12000
H2817       H  0.06845689  0.84938098  0.41480551     0.12600
C2818       C  0.12871811  0.90373373  0.43881987    -0.22900
H2819       H  0.12559198  0.90456424  0.35109691     0.08200
C2820       C  0.09469677  0.89731518  0.27377042     0.04600
C2821       C  0.09781669  0.90236166  0.22932257    -0.20100
C2822       C  0.10624041  0.89505005  0.20098655    -0.12400
C2823       C  0.11096885  0.88166448  0.21758478     0.13300
C2824       C  0.10750748  0.87642067  0.26206508    -0.22800
C2825       C  0.08627432  0.90605849  0.30322614    -0.05900
H2826       H  0.09415927  0.91257564  0.21682566     0.14800
C2827       C  0.12067723  0.87338679  0.19094489    -0.16100
H2828       H  0.11148230  0.86655154  0.27523504     0.09100
H2829       H  0.12441180  0.91190689  0.46037108     0.07000
H2830       H  0.14074633  0.91417022  0.41828064     0.08200
H2831       H  0.13400692  0.89600181  0.45899151     0.07200
H2832       H  0.07184996  0.84388397  0.30280152     0.02100
H2833       H  0.06027216  0.85779159  0.30825412     0.02600
H2834       H  0.05475628  0.83868625  0.34583682     0.06100
H2835       H  0.08297095  0.91582309  0.28488109     0.05100
H2836       H  0.09648379  0.91430531  0.32976797    -0.00700
H2837       H  0.07287646  0.89472825  0.31809207     0.00800
H2838       H  0.13447228  0.87711364  0.20654275     0.04500
H2839       H  0.12371126  0.87850114  0.15679488     0.06400
H2840       H  0.11157362  0.85769193  0.19010822     0.07300
C2841       C  0.52388590  0.19859131  0.33237620    -0.22300
C2842       C  0.51747679  0.18084547  0.31282849     0.09600
C2843       C  0.49788050  0.16861660  0.30573897     0.10000
C2844       C  0.48503887  0.17424919  0.31930509    -0.17300
C2845       C  0.49115083  0.19157842  0.34131684    -0.27700
C2846       C  0.51099300  0.20414377  0.34702349     0.18400
C2847       C  0.53119808  0.17443011  0.30367820     0.12300
C2848       C  0.49044035  0.14928220  0.28537015    -0.12000
H2849       H  0.46996121  0.16455379  0.31431782     0.12600
C2850       C  0.51878808  0.22297054  0.37007485    -0.22900
H2851       H  0.53902394  0.20780149  0.33772230     0.08200
C2852       C  0.53982637  0.17689003  0.26222077     0.04600
C2853       C  0.55074140  0.16828863  0.25370662    -0.20100
C2854       C  0.55301717  0.15713453  0.28570529    -0.12400
C2855       C  0.54525166  0.15573327  0.32830043     0.13300
C2856       C  0.53444307  0.16442348  0.33657665    -0.22800
C2857       C  0.53711758  0.18821680  0.22684430    -0.05900
H2858       H  0.55676766  0.16956655  0.22125133     0.14800
C2859       C  0.54825663  0.14523348  0.36543482    -0.16100
H2860       H  0.52788569  0.16285575  0.36847541     0.09100
H2861       H  0.53458344  0.23073597  0.37151478     0.07000
H2862       H  0.51343749  0.22073843  0.40437279     0.08200
H2863       H  0.51447549  0.23206322  0.35217209     0.07200
H2864       H  0.49452772  0.14066456  0.30594740     0.02100
H2865       H  0.49648227  0.15075468  0.25195481     0.02600
H2866       H  0.47467995  0.14145969  0.28249606     0.06100
H2867       H  0.54487748  0.18881071  0.19630566     0.05100
H2868       H  0.54253863  0.20296765  0.23850676    -0.00700
H2869       H  0.52178162  0.18170887  0.21874965     0.00800
H2870       H  0.56369241  0.15054317  0.36971156     0.04500
H2871       H  0.54062194  0.12975927  0.35877684     0.06400
H2872       H  0.54271403  0.14726899  0.39709276     0.07300
C2873       C  0.20363530  0.01359895  0.31039041    -0.22300
C2874       C  0.19892687  0.01612427  0.26766058     0.09600
C2875       C  0.19882278  0.03291907  0.25714186     0.10000
C2876       C  0.20261434  0.04641983  0.29008845    -0.17300
C2877       C  0.20600038  0.04341919  0.33394666    -0.27700
C2878       C  0.20720562  0.02697259  0.34374240     0.18400
C2879       C  0.19033869  0.99963054  0.23728230     0.12300
C2880       C  0.19350130  0.03609687  0.21176292     0.02400
H2881       H  0.20199768  0.05900823  0.28172885     0.12600
C2882       C  0.21142504  0.02278973  0.38927896    -0.22900
H2883       H  0.20348084  0.00055651  0.31818584     0.08200
C2884       C  0.20019111  0.99773479  0.20124046     0.04600
C2885       C  0.18997890  0.98356497  0.16950254    -0.20100
C2886       C  0.17024483  0.97113305  0.17372051    -0.12400
C2887       C  0.16095368  0.97192118  0.21245895     0.13300
C2888       C  0.17109786  0.98624822  0.24338913    -0.22800
C2889       C  0.22137649  0.01050574  0.19661026    -0.05900
H2890       H  0.19727341  0.98266548  0.14059997     0.14800
C2891       C  0.14041712  0.95756126  0.22207567    -0.16100
H2892       H  0.16380510  0.98744678  0.27195306     0.09100
H2893       H  0.21199164  0.00946579  0.39028439     0.07000
H2894       H  0.20010008  0.02105599  0.41241762     0.08200
H2895       H  0.22548020  0.03447761  0.40040387     0.07200
H2896       H  0.17894107  0.02453676  0.20336956     0.02100
H2897       H  0.20366969  0.03634050  0.18715932     0.02600
H2898       H  0.19370966  0.04979203  0.20939876     0.06100
H2899       H  0.22688195  0.00704801  0.16672862     0.05100
H2900       H  0.22859823  0.00874300  0.22565590    -0.00700
H2901       H  0.22511658  0.02556029  0.19447216     0.00800
H2902       H  0.13608512  0.95959455  0.25531960     0.04500
H2903       H  0.13837769  0.94304952  0.22089034     0.06400
H2904       H  0.13084068  0.95883898  0.19819462     0.07300
C2905       C  0.30525691  0.12465054  0.38878554    -0.22300
C2906       C  0.31650832  0.13099188  0.42688599     0.09600
C2907       C  0.30756162  0.12741771  0.46841656     0.10000
C2908       C  0.28767030  0.11851259  0.47067504    -0.17300
C2909       C  0.27646553  0.11251351  0.43260652    -0.27700
C2910       C  0.28529857  0.11516183  0.39114402     0.18400
C2911       C  0.33757704  0.14221611  0.42265279     0.12300
C2912       C  0.31891709  0.13270497  0.51042973    -0.12000
H2913       H  0.28077362  0.11626126  0.50240896     0.12600
C2914       C  0.27423555  0.10876501  0.34876715    -0.22900
H2915       H  0.31208649  0.12749247  0.35692357     0.08200
C2916       C  0.34831165  0.13417869  0.40716224     0.04600
C2917       C  0.36821869  0.14549720  0.40472923    -0.20100
C2918       C  0.37781974  0.16471951  0.41762311    -0.12400
C2919       C  0.36687628  0.17270215  0.43323335     0.13300
C2920       C  0.34697130  0.16137285  0.43494923    -0.22800
C2921       C  0.33886901  0.11359650  0.39389492    -0.05900
H2922       H  0.37631306  0.13920618  0.39258309     0.14800
C2923       C  0.37575329  0.19312938  0.44761345    -0.16100
H2924       H  0.33855677  0.16750504  0.44613689     0.09100
H2925       H  0.27727724  0.09846405  0.33207884     0.07000
H2926       H  0.27867563  0.12118627  0.32689073     0.08200
H2927       H  0.25864196  0.10184700  0.35355392     0.07200
H2928       H  0.32827300  0.14830968  0.51278527     0.02100
H2929       H  0.32775347  0.12585677  0.51131386     0.02600
H2930       H  0.30955187  0.12796868  0.53983111     0.06100
H2931       H  0.34945163  0.10945348  0.38425174     0.05100
H2932       H  0.32935738  0.11087997  0.36536357    -0.00700
H2933       H  0.33042677  0.10447513  0.42180360     0.00800
H2934       H  0.36488421  0.19676006  0.45813495     0.04500
H2935       H  0.38385100  0.20271265  0.42001728     0.06400
H2936       H  0.38528835  0.19576509  0.47608357     0.07300
C2937       C  0.14968736  0.00686072  0.54444719    -0.22300
C2938       C  0.13737643  0.99341110  0.51389021     0.09600
C2939       C  0.13711935  0.99904211  0.47030584     0.10000
C2940       C  0.15007232  0.01772814  0.45745789    -0.17300
C2941       C  0.16350928  0.03100214  0.48706737    -0.27700
C2942       C  0.16277038  0.02560802  0.53174432     0.18400
C2943       C  0.12674831  0.97308260  0.52665329     0.12300
C2944       C  0.12367008  0.98509152  0.43692633    -0.12000
H2945       H  0.15026630  0.02164712  0.42339319     0.12600
C2946       C  0.17565450  0.03930494  0.56633066    -0.22900
H2947       H  0.14962514  0.00239458  0.57800614     0.08200
C2948       C  0.13578187  0.96220145  0.52583906     0.04600
C2949       C  0.12553798  0.94304327  0.53788169    -0.20100
C2950       C  0.10630606  0.93422315  0.55076237    -0.12400
C2951       C  0.09707889  0.94510756  0.55033500     0.13300
C2952       C  0.10750359  0.96444582  0.53847764    -0.22800
C2953       C  0.15628332  0.97079584  0.51189954    -0.05900
H2954       H  0.13272429  0.93490878  0.53711921     0.14800
C2955       C  0.07643991  0.93668589  0.56260128    -0.16100
H2956       H  0.10063248  0.97291126  0.53835819     0.09100
H2957       H  0.17194191  0.03298806  0.59973121     0.07000
H2958       H  0.17431298  0.05219898  0.56640039     0.08200
H2959       H  0.19064423  0.04327276  0.56004286     0.07200
H2960       H  0.10875793  0.97953496  0.44781518     0.02100
H2961       H  0.12636660  0.97309432  0.43335593     0.02600
H2962       H  0.12539301  0.99174980  0.40415461     0.06100
H2963       H  0.16108019  0.96022802  0.51246408     0.05100
H2964       H  0.16556973  0.98255670  0.53445167    -0.00700
H2965       H  0.15807318  0.97638945  0.47791595     0.00800
H2966       H  0.07184300  0.94740655  0.56138586     0.04500
H2967       H  0.07403634  0.93095376  0.59653892     0.06400
H2968       H  0.06744184  0.92522071  0.53913318     0.07300
C2969       C  0.48365886  0.82414540  0.69514051    -0.22300
C2970       C  0.47113606  0.82466134  0.66430124     0.09600
C2971       C  0.47068607  0.81819070  0.62107162     0.10000
C2972       C  0.48361451  0.81237737  0.60893355    -0.17300
C2973       C  0.49709085  0.81320991  0.63892540    -0.27700
C2974       C  0.49662923  0.81840968  0.68297496     0.18400
C2975       C  0.46062923  0.83444436  0.67635076     0.12300
C2976       C  0.45709350  0.81814921  0.58742323    -0.12000
H2977       H  0.48409941  0.80844863  0.57509876     0.12600
C2978       C  0.50982246  0.81832573  0.71752082    -0.22900
H2979       H  0.48386364  0.82901197  0.72840021     0.08200
C2980       C  0.44359303  0.82552865  0.70067864     0.04600
C2981       C  0.43495448  0.83606429  0.71296930    -0.20100
C2982       C  0.44313883  0.85538211  0.70180144    -0.12400
C2983       C  0.45987111  0.86397336  0.67561661     0.13300
C2984       C  0.46846562  0.85343247  0.66391060    -0.22800
C2985       C  0.43473774  0.80502823  0.71399123    -0.05900
H2986       H  0.42212420  0.82935703  0.73268445     0.14800
C2987       C  0.46898068  0.88394547  0.65806843    -0.16100
H2988       H  0.48146365  0.86009913  0.64466262     0.09100
H2989       H  0.50135241  0.80925995  0.74548552     0.07000
H2990       H  0.51932116  0.83299157  0.72963284     0.08200
H2991       H  0.51866405  0.81253464  0.70498209     0.07200
H2992       H  0.45992896  0.83281473  0.58212626     0.02100
H2993       H  0.44224313  0.80910309  0.59910645     0.02600
H2994       H  0.45852689  0.81251533  0.55529730     0.06100
H2995       H  0.42131526  0.80014851  0.73260049     0.05100
H2996       H  0.44475409  0.80310427  0.73515532    -0.00700
H2997       H  0.43146382  0.79601178  0.68425630     0.00800
H2998       H  0.48338063  0.89263715  0.67254717     0.04500
H2999       H  0.46069769  0.89097337  0.66461874     0.06400
H3000       H  0.47036917  0.88369395  0.62179896     0.07300
C3001       C  0.45220135  0.91578975  0.43962573    -0.22300
C3002       C  0.43415155  0.90590609  0.45893064     0.09600
C3003       C  0.41828854  0.89342406  0.43316030     0.10000
C3004       C  0.42111523  0.88982656  0.38941637    -0.17300
C3005       C  0.43945399  0.89852984  0.37130127    -0.27700
C3006       C  0.45507637  0.91228002  0.39606911     0.18400
C3007       C  0.43275518  0.90664490  0.50733053     0.12300
C3008       C  0.39857069  0.88338260  0.45249847    -0.12000
H3009       H  0.40916936  0.87945646  0.37015051     0.12600
C3010       C  0.47501606  0.92331538  0.37787087    -0.22900
H3011       H  0.46429293  0.92555319  0.45939669     0.08200
C3012       C  0.43663145  0.89491515  0.53420847     0.04600
C3013       C  0.43525416  0.89577855  0.57988726    -0.20100
C3014       C  0.42984948  0.90792484  0.59967386    -0.12400
C3015       C  0.42593068  0.91972683  0.57255237     0.13300
C3016       C  0.42759537  0.91901168  0.52661768    -0.22800
C3017       C  0.44192947  0.88120801  0.51459026    -0.05900
H3018       H  0.43793563  0.88647586  0.60022954     0.14800
C3019       C  0.42031826  0.93330008  0.59149819    -0.16100
H3020       H  0.42471140  0.92799600  0.50557757     0.09100
H3021       H  0.48487833  0.92107141  0.39879184     0.07000
H3022       H  0.47974508  0.93868060  0.37788856     0.08200
H3023       H  0.47619427  0.91923326  0.34384000     0.07200
H3024       H  0.39482201  0.89401649  0.46401359     0.02100
H3025       H  0.39798680  0.87448710  0.48072133     0.02600
H3026       H  0.38775979  0.87405788  0.42801791     0.06100
H3027       H  0.44419787  0.87287380  0.54026748     0.05100
H3028       H  0.45529658  0.88908377  0.49541597    -0.00700
H3029       H  0.43036584  0.87109041  0.49257733     0.00800
H3030       H  0.41905068  0.94219823  0.56561162     0.04500
H3031       H  0.43122251  0.94293282  0.61544054     0.06400
H3032       H  0.40627301  0.92530528  0.60795651     0.07300
C3033       C  0.44071581  0.88324702  0.94784734    -0.22300
C3034       C  0.45609077  0.90052052  0.96158358     0.09600
C3035       C  0.46588214  0.91519082  0.93076668     0.10000
C3036       C  0.45981539  0.91229107  0.88665935    -0.17300
C3037       C  0.44423665  0.89494422  0.87252764    -0.27700
C3038       C  0.43456786  0.88018275  0.90402719     0.18400
C3039       C  0.46098280  0.90283180  0.00900497     0.12300
C3040       C  0.48258905  0.93390056  0.94463521    -0.12000
H3041       H  0.46730693  0.92366487  0.86314139     0.12600
C3042       C  0.41738237  0.86125437  0.89282116    -0.22900
H3043       H  0.43328320  0.87213625  0.97200502     0.08200
C3044       C  0.45068047  0.90722067  0.03934640     0.04600
C3045       C  0.45416153  0.90712326  0.08443481    -0.20100
C3046       C  0.46745956  0.90232454  0.10042049    -0.12400
C3047       C  0.47810185  0.89828639  0.06953183     0.13300
C3048       C  0.47472483  0.89868660  0.02427911    -0.22800
C3049       C  0.43569256  0.91162649  0.02411312    -0.05900
H3050       H  0.44592050  0.91026638  0.10736184     0.14800
C3051       C  0.49296166  0.89345332  0.08339978    -0.16100
H3052       H  0.48245370  0.89519821  0.00058025     0.09100
H3053       H  0.41140454  0.85201414  0.92216936     0.07000
H3054       H  0.42133483  0.85350430  0.86902365     0.08200
H3055       H  0.40596788  0.86339038  0.87908590     0.07200
H3056       H  0.49394396  0.93160334  0.95818891     0.02100
H3057       H  0.47806755  0.94051838  0.97022973     0.02600
H3058       H  0.48863159  0.94392929  0.91660801     0.06100
H3059       H  0.42908700  0.91497661  0.05204961     0.05100
H3060       H  0.42424755  0.89921751  0.00640539    -0.00700
H3061       H  0.44217516  0.92405733  0.00172384     0.00800
H3062       H  0.50028485  0.89155360  0.05470158     0.04500
H3063       H  0.48622012  0.87993011  0.10208814     0.06400
H3064       H  0.50394786  0.90508801  0.10386649     0.07300
C3065       C  0.32765541  0.86276024  0.97618689    -0.22300
C3066       C  0.32200905  0.86207442  0.93256394     0.09600
C3067       C  0.30256209  0.85401529  0.92231052     0.10000
C3068       C  0.28906336  0.84640000  0.95621780    -0.17300
C3069       C  0.29458363  0.84628954  0.99992657    -0.27700
C3070       C  0.31426156  0.85464356  0.01002078     0.18400
C3071       C  0.33646991  0.86692237  0.89804703     0.12300
C3072       C  0.29607764  0.85280578  0.87546752    -0.12000
H3073       H  0.27404409  0.83979655  0.94834986     0.12600
C3074       C  0.32193394  0.85403800  0.05477810    -0.22900
H3075       H  0.34263403  0.86856113  0.98347326     0.08200
C3076       C  0.34761789  0.88548934  0.88152602     0.04600
C3077       C  0.36189603  0.88921359  0.85051147    -0.20100
C3078       C  0.36535330  0.87478728  0.83664566    -0.12400
C3079       C  0.35382246  0.85608334  0.85272972     0.13300
C3080       C  0.33963678  0.85248282  0.88345552    -0.22800
C3081       C  0.34455724  0.90128038  0.89705539    -0.05900
H3082       H  0.37060734  0.90344803  0.83768217     0.14800
C3083       C  0.35553295  0.83937790  0.83755114    -0.16100
H3084       H  0.33091535  0.83821704  0.89627887     0.09100
H3085       H  0.33145301  0.86872848  0.06670191     0.07000
H3086       H  0.33028402  0.84669151  0.05236827     0.08200
H3087       H  0.31091735  0.84644910  0.07980436     0.07200
H3088       H  0.30052294  0.84425135  0.85569090     0.02100
H3089       H  0.30250338  0.86726572  0.86122787     0.02600
H3090       H  0.28035672  0.84603395  0.87315627     0.06100
H3091       H  0.35449456  0.91495471  0.88083568     0.05100
H3092       H  0.34689488  0.90316200  0.93307967    -0.00700
H3093       H  0.32978889  0.89778482  0.88954274     0.00800
H3094       H  0.35911362  0.83322571  0.86596773     0.04500
H3095       H  0.36645751  0.84296264  0.81200311     0.06400
H3096       H  0.34172787  0.82837047  0.82352302     0.07300
C3097       C  0.33243865  0.83102722  0.62557216    -0.22300
C3098       C  0.32069922  0.81590805  0.65338474     0.09600
C3099       C  0.32825167  0.81289424  0.69204282     0.10000
C3100       C  0.34690694  0.82616684  0.70426394    -0.17300
C3101       C  0.35829828  0.84250376  0.67876690    -0.27700
C3102       C  0.35124916  0.84433620  0.63748858     0.18400
C3103       C  0.30006092  0.80489782  0.64412439     0.12300
C3104       C  0.31645084  0.79592366  0.72093046    -0.12000
H3105       H  0.35222227  0.82410318  0.73516608     0.12600
C3106       C  0.36314877  0.86020742  0.60593895    -0.22900
H3107       H  0.32652924  0.83290584  0.59535903     0.08200
C3108       C  0.28767710  0.81034767  0.66287324     0.04600
C3109       C  0.26840415  0.80043741  0.65151600    -0.20100
C3110       C  0.26105951  0.78515605  0.62194090    -0.12400
C3111       C  0.27359184  0.77984244  0.60261549     0.13300
C3112       C  0.29292228  0.78964681  0.61462376    -0.22800
C3113       C  0.29487998  0.82699183  0.69392182    -0.05900
H3114       H  0.25904549  0.80499985  0.66504127     0.14800
C3115       C  0.26763675  0.76500877  0.56712707    -0.16100
H3116       H  0.30263992  0.78581205  0.59969122     0.09100
H3117       H  0.35568582  0.85843392  0.57421086     0.07000
H3118       H  0.37663370  0.86038560  0.59879785     0.08200
H3119       H  0.36627245  0.87404233  0.61995358     0.07200
H3120       H  0.31180847  0.78270687  0.70180850     0.02100
H3121       H  0.30369919  0.79614218  0.73305701     0.02600
H3122       H  0.32460612  0.79565059  0.74991133     0.06100
H3123       H  0.28326190  0.82939178  0.70518422     0.05100
H3124       H  0.30578053  0.84008485  0.67720086    -0.00700
H3125       H  0.30130386  0.82445467  0.72339543     0.00800
H3126       H  0.27665621  0.77146733  0.53759952     0.04500
H3127       H  0.25270695  0.75899975  0.55648782     0.06400
H3128       H  0.26965424  0.75325213  0.57887126     0.07300
C3129       C  0.61414539  0.16457836  0.84652030    -0.22300
C3130       C  0.62829978  0.17502118  0.81528142     0.09600
C3131       C  0.62296628  0.17713553  0.77245135     0.10000
C3132       C  0.60359146  0.16788370  0.76116967    -0.17300
C3133       C  0.58949482  0.15667473  0.79181960    -0.27700
C3134       C  0.59477558  0.15552441  0.83546722     0.18400
C3135       C  0.64840535  0.18150695  0.82670534     0.12300
C3136       C  0.63772124  0.18896689  0.73859494    -0.12000
H3137       H  0.59944222  0.16886379  0.72787468     0.12600
C3138       C  0.58044210  0.14478356  0.87100735    -0.22900
H3139       H  0.61825898  0.16298860  0.87942939     0.08200
C3140       C  0.65910735  0.19680822  0.85555497     0.04600
C3141       C  0.67736462  0.20080909  0.86876509    -0.20100
C3142       C  0.68498101  0.18962223  0.85424043    -0.12400
C3143       C  0.67452729  0.17493133  0.82325464     0.13300
C3144       C  0.65641422  0.17109285  0.81014927    -0.22800
C3145       C  0.65116257  0.20873923  0.87261197    -0.05900
H3146       H  0.68531778  0.21214323  0.89209711     0.14800
C3147       C  0.68225717  0.16320001  0.80337909    -0.16100
H3148       H  0.64812963  0.15945553  0.78774449     0.09100
H3149       H  0.58243831  0.15458227  0.89848092     0.07000
H3150       H  0.58262521  0.13326390  0.88368638     0.08200
H3151       H  0.56557258  0.13852759  0.85951817     0.07200
H3152       H  0.64698481  0.18290697  0.73168060     0.02100
H3153       H  0.64658123  0.20369748  0.75100180     0.02600
H3154       H  0.63109565  0.18953601  0.70716431     0.06100
H3155       H  0.66149258  0.22038044  0.89414556     0.05100
H3156       H  0.63806703  0.19981800  0.89198907    -0.00700
H3157       H  0.64767456  0.21516830  0.84459670     0.00800
H3158       H  0.68326759  0.15393770  0.82859310     0.04500
H3159       H  0.69647006  0.17267741  0.78874509     0.06400
H3160       H  0.67287957  0.15373889  0.77689846     0.07300
C3161       C  0.47645566  0.02362801  0.71931385    -0.22300
C3162       C  0.46046220  0.01467186  0.74668538     0.09600
C3163       C  0.45522305  0.02579215  0.77212269     0.10000
C3164       C  0.46655343  0.04570382  0.77073621    -0.17300
C3165       C  0.48322444  0.05468014  0.74525915    -0.27700
C3166       C  0.48785113  0.04347553  0.71804817     0.18400
C3167       C  0.45043778  0.99368615  0.75054918     0.12300
C3168       C  0.43821106  0.01662769  0.80218315    -0.12000
H3169       H  0.46302085  0.05424737  0.79168303     0.12600
C3170       C  0.50458932  0.05193039  0.68709439    -0.22900
H3171       H  0.48030412  0.01502859  0.69942405     0.08200
C3172       C  0.43476569  0.98175122  0.72369346     0.04600
C3173       C  0.42679690  0.96197771  0.72655169    -0.20100
C3174       C  0.43453697  0.95394194  0.75459687    -0.12400
C3175       C  0.44991910  0.96590426  0.78235287     0.13300
C3176       C  0.45764793  0.98563122  0.77998381    -0.22800
C3177       C  0.42706547  0.98988580  0.69058642    -0.05900
H3178       H  0.41520562  0.95278960  0.70479921     0.14800
C3179       C  0.45847663  0.95836057  0.81482168    -0.16100
H3180       H  0.46965932  0.99484473  0.80063139     0.09100
H3181       H  0.49959056  0.04670851  0.65325110     0.07000
H3182       H  0.51494436  0.04755762  0.69714527     0.08200
H3183       H  0.51196511  0.06760689  0.68591360     0.07200
H3184       H  0.44010413  0.00763235  0.82668702     0.02100
H3185       H  0.42511648  0.00765316  0.78289832     0.02600
H3186       H  0.43623573  0.02735961  0.82020791     0.06100
H3187       H  0.41494795  0.97855932  0.67181466     0.05100
H3188       H  0.43842205  0.99892628  0.66686771    -0.00700
H3189       H  0.42200996  0.99859767  0.70740172     0.00800
H3190       H  0.47354552  0.96349517  0.80599735     0.04500
H3191       H  0.45077602  0.94265965  0.81616878     0.06400
H3192       H  0.45796727  0.96353503  0.84826872     0.07300
C3193       C  0.54309213  0.09794223  0.96361169    -0.22300
C3194       C  0.53349882  0.10408482  0.99129133     0.09600
C3195       C  0.51978921  0.10793715  0.97360951     0.10000
C3196       C  0.51637929  0.10613654  0.92822614    -0.17300
C3197       C  0.52667408  0.10097681  0.89988701    -0.27700
C3198       C  0.53987562  0.09630516  0.91804664     0.18400
C3199       C  0.53925773  0.10803883  0.03798368     0.12300
C3200       C  0.50909722  0.11439098  0.00255706    -0.12000
H3201       H  0.50621333  0.10962103  0.91462404     0.12600
C3202       C  0.55037327  0.08926193  0.89005045    -0.22900
H3203       H  0.55353246  0.09492287  0.97767892     0.08200
C3204       C  0.53162837  0.09377752  0.07045472     0.04600
C3205       C  0.53807648  0.09842125  0.11404917    -0.20100
C3206       C  0.55202482  0.11700010  0.12561468    -0.12400
C3207       C  0.55896060  0.13143024  0.09313488     0.13300
C3208       C  0.55271542  0.12665482  0.04968458    -0.22800
C3209       C  0.51694770  0.07368275  0.05884854    -0.05900
H3210       H  0.53277196  0.08736286  0.13880048     0.14800
C3211       C  0.57254345  0.15210249  0.10302088    -0.16100
H3212       H  0.55826434  0.13761309  0.02466253     0.09100
H3213       H  0.54002280  0.07666038  0.87091999     0.07000
H3214       H  0.55897996  0.08503407  0.91034081     0.08200
H3215       H  0.56030229  0.10050088  0.86729023     0.07200
H3216       H  0.51923547  0.12793319  0.01897763     0.02100
H3217       H  0.50103869  0.10345265  0.02790276     0.02600
H3218       H  0.49884083  0.11676316  0.98347121     0.06100
H3219       H  0.51240608  0.06427159  0.08810712     0.05100
H3220       H  0.52291988  0.06799361  0.03436571    -0.00700
H3221       H  0.50420065  0.07333928  0.04468983     0.00800
H3222       H  0.58630329  0.15677075  0.08611270     0.04500
H3223       H  0.57520070  0.15518790  0.13855881     0.06400
H3224       H  0.56643581  0.16073074  0.09074649     0.07300
C3225       C  0.56230174  0.10293314  0.57106105    -0.22300
C3226       C  0.55877842  0.11315046  0.53910324     0.09600
C3227       C  0.55157979  0.12496961  0.55164965     0.10000
C3228       C  0.54792585  0.12622028  0.59606773    -0.17300
C3229       C  0.55120445  0.11586290  0.62824567    -0.27700
C3230       C  0.55880612  0.10427608  0.61571650     0.18400
C3231       C  0.56266134  0.11133866  0.49248226     0.12300
C3232       C  0.54777170  0.13626385  0.51814997    -0.12000
H3233       H  0.54217156  0.13514184  0.60569993     0.12600
C3234       C  0.56416285  0.09379366  0.64819711    -0.22900
H3235       H  0.56806319  0.09405823  0.56110776     0.08200
C3236       C  0.58099853  0.12224808  0.47451129     0.04600
C3237       C  0.58369981  0.12089774  0.42945094    -0.20100
C3238       C  0.56842866  0.10902525  0.40156612    -0.12400
C3239       C  0.54997120  0.09791463  0.42022971     0.13300
C3240       C  0.54745489  0.09919809  0.46547219    -0.22800
C3241       C  0.59761098  0.13563230  0.50275162    -0.05900
H3242       H  0.59783819  0.12955297  0.41589934     0.14800
C3243       C  0.53272779  0.08470686  0.39337439    -0.16100
H3244       H  0.53340784  0.09095410  0.47992743     0.09100
H3245       H  0.57932730  0.09800887  0.64340056     0.07000
H3246       H  0.55520347  0.07827614  0.64259793     0.08200
H3247       H  0.56263376  0.09686968  0.68287022     0.07200
H3248       H  0.53694646  0.12652828  0.49422719     0.02100
H3249       H  0.56111314  0.14597849  0.50036535     0.02600
H3250       H  0.54235336  0.14495613  0.53369021     0.06100
H3251       H  0.61097575  0.14327432  0.48342500     0.05100
H3252       H  0.59983736  0.12756864  0.52916480    -0.00700
H3253       H  0.59473808  0.14634613  0.51782224     0.00800
H3254       H  0.51980129  0.07687221  0.41408575     0.04500
H3255       H  0.53515491  0.07401950  0.37657671     0.06400
H3256       H  0.52969258  0.09292350  0.36891096     0.07300
C3257       C  0.47615768  0.14921122  0.63186093    -0.22300
C3258       C  0.46726582  0.13555490  0.59881827     0.09600
C3259       C  0.46802470  0.11861847  0.60058518     0.10000
C3260       C  0.47822394  0.11607818  0.63468982    -0.17300
C3261       C  0.48748538  0.13000431  0.66711602    -0.27700
C3262       C  0.48607707  0.14660952  0.66618344     0.18400
C3263       C  0.45946181  0.14064261  0.56039979     0.12300
C3264       C  0.45812559  0.10327837  0.56660287    -0.12000
H3265       H  0.47930939  0.10337168  0.63558662     0.12600
C3266       C  0.49525080  0.16216821  0.69997736    -0.22900
H3267       H  0.47585772  0.16234771  0.63012057     0.08200
C3268       C  0.44375109  0.14352832  0.56394879     0.04600
C3269       C  0.43944241  0.15198654  0.52884475    -0.20100
C3270       C  0.45060755  0.15771698  0.49062648    -0.12400
C3271       C  0.46541640  0.15347476  0.48598385     0.13300
C3272       C  0.46974123  0.14519529  0.52103779    -0.22800
C3273       C  0.43181150  0.13805729  0.60501858    -0.05900
H3274       H  0.42808898  0.15519769  0.53233854     0.14800
C3275       C  0.47716897  0.15769706  0.44477517    -0.16100
H3276       H  0.48179745  0.14301114  0.51825742     0.09100
H3277       H  0.48422042  0.16443872  0.71564735     0.07000
H3278       H  0.50592241  0.17555924  0.68383119     0.08200
H3279       H  0.50244291  0.15887280  0.72631835     0.07200
H3280       H  0.46428646  0.10865005  0.53362668     0.02100
H3281       H  0.44272555  0.09858290  0.56607474     0.02600
H3282       H  0.45960392  0.09072798  0.57379978     0.06100
H3283       H  0.41982313  0.14083697  0.60186928     0.05100
H3284       H  0.44056586  0.14631378  0.63351126    -0.00700
H3285       H  0.42579058  0.12268303  0.61150711     0.00800
H3286       H  0.49223200  0.16839132  0.45190212     0.04500
H3287       H  0.47205319  0.16301250  0.41777441     0.06400
H3288       H  0.47646461  0.14448675  0.43282071     0.07300
C3289       C  0.50656223  0.21909900  0.89487904    -0.22300
C3290       C  0.49832753  0.20429867  0.86421925     0.09600
C3291       C  0.48147770  0.20040546  0.84230929     0.10000
C3292       C  0.47288974  0.21108786  0.85247560    -0.17300
C3293       C  0.48067508  0.22555581  0.88415729    -0.27700
C3294       C  0.49786557  0.22974421  0.90556107     0.18400
C3295       C  0.50697145  0.19241922  0.85591534     0.12300
C3296       C  0.47243121  0.18479998  0.80851137    -0.12000
H3297       H  0.45975094  0.20787630  0.83615094     0.12600
C3298       C  0.50695946  0.24441146  0.94138400    -0.22900
H3299       H  0.51951480  0.22195199  0.91155216     0.08200
C3300       C  0.52068846  0.19715142  0.82281288     0.04600
C3301       C  0.52539458  0.18359100  0.80932102    -0.20100
C3302       C  0.51640321  0.16519302  0.82759557    -0.12400
C3303       C  0.50362748  0.16105459  0.86330074     0.13300
C3304       C  0.49922208  0.17483748  0.87707460    -0.22800
C3305       C  0.52966781  0.21620011  0.80040899    -0.05900
H3306       H  0.53547905  0.18714486  0.78271258     0.14800
C3307       C  0.49376903  0.14200680  0.88584248    -0.16100
H3308       H  0.48873160  0.17147842  0.90271207     0.09100
H3309       H  0.52142572  0.25549029  0.93085575     0.07000
H3310       H  0.50822947  0.23751823  0.97162619     0.08200
H3311       H  0.49884230  0.25145100  0.95028607     0.07200
H3312       H  0.46840793  0.17092809  0.82384112     0.02100
H3313       H  0.48261584  0.18758352  0.78132842     0.02600
H3314       H  0.45938357  0.18378408  0.79423896     0.06100
H3315       H  0.54005692  0.21759568  0.77488380     0.05100
H3316       H  0.53727603  0.22762802  0.82504795    -0.00700
H3317       H  0.51851790  0.21814955  0.78432570     0.00800
H3318       H  0.50451871  0.13898127  0.90010251     0.04500
H3319       H  0.48461902  0.13073816  0.86208400     0.06400
H3320       H  0.48447169  0.14156956  0.91310581     0.07300
C3321       C  0.52450275  0.34019545  0.86128053    -0.22300
C3322       C  0.52037619  0.34782529  0.82464225     0.09600
C3323       C  0.50334925  0.33663585  0.80127315     0.10000
C3324       C  0.49025975  0.31836814  0.81653934    -0.17300
C3325       C  0.49360906  0.31100053  0.85520827    -0.27700
C3326       C  0.51140593  0.32198709  0.87708551     0.18400
C3327       C  0.53275563  0.36831034  0.81471193     0.12300
C3328       C  0.49868627  0.34430780  0.76111619    -0.12000
H3329       H  0.47696364  0.31017308  0.79904370     0.12600
C3330       C  0.51677560  0.31513720  0.91769730    -0.22900
H3331       H  0.53768780  0.34895118  0.87883433     0.08200
C3332       C  0.52980454  0.38191788  0.83614968     0.04600
C3333       C  0.54051591  0.40099672  0.82363910    -0.20100
C3334       C  0.55431016  0.40709148  0.79008382    -0.12400
C3335       C  0.55778014  0.39336873  0.76980817     0.13300
C3336       C  0.54687857  0.37415502  0.78240656    -0.22800
C3337       C  0.51501622  0.37622914  0.87177297    -0.05900
H3338       H  0.53771915  0.41113198  0.83986161     0.14800
C3339       C  0.57264731  0.39856333  0.73463218    -0.16100
H3340       H  0.54910387  0.36354200  0.76642339     0.09100
H3341       H  0.50719766  0.31361715  0.94533745     0.07000
H3342       H  0.53153205  0.32527829  0.92853413     0.08200
H3343       H  0.51596833  0.30136915  0.91088192     0.07200
H3344       H  0.50981370  0.34798871  0.73572416     0.02100
H3345       H  0.49809090  0.35722209  0.76985186     0.02600
H3346       H  0.48474154  0.33379794  0.74676100     0.06100
H3347       H  0.51440483  0.38861703  0.88494659     0.05100
H3348       H  0.51843374  0.36956978  0.89940685    -0.00700
H3349       H  0.50074772  0.36593892  0.85854484     0.00800
H3350       H  0.58685964  0.40914355  0.74762810     0.04500
H3351       H  0.56911035  0.40441707  0.70556844     0.06400
H3352       H  0.57350517  0.38605029  0.72340195     0.07300
C3353       C  0.43040331  0.24864313  0.68542572    -0.22300
C3354       C  0.43403201  0.23461061  0.66991332     0.09600
C3355       C  0.43565257  0.22235628  0.69995044     0.10000
C3356       C  0.43423377  0.22482982  0.74504500    -0.17300
C3357       C  0.43124758  0.23931629  0.76132075    -0.27700
C3358       C  0.42890566  0.25117162  0.73067535     0.18400
C3359       C  0.43706853  0.23345320  0.62230245     0.12300
C3360       C  0.43885968  0.20660316  0.68444147    -0.12000
H3361       H  0.43579743  0.21546173  0.76772052     0.12600
C3362       C  0.42518658  0.26674552  0.74474293    -0.22900
H3363       H  0.42915496  0.25793901  0.66191695     0.08200
C3364       C  0.42185306  0.22560852  0.59206151     0.04600
C3365       C  0.42541847  0.22297873  0.54823353    -0.20100
C3366       C  0.44374680  0.22767071  0.53441360    -0.12400
C3367       C  0.45914467  0.23653600  0.56424089     0.13300
C3368       C  0.45556979  0.23936110  0.60775594    -0.22800
C3369       C  0.40180155  0.21925918  0.60640093    -0.05900
H3370       H  0.41368450  0.21632848  0.52519647     0.14800
C3371       C  0.47951578  0.24334578  0.55155148    -0.16100
H3372       H  0.46726647  0.24577892  0.63094100     0.09100
H3373       H  0.41172284  0.26063155  0.76376400     0.07000
H3374       H  0.42368322  0.27435293  0.71616041     0.08200
H3375       H  0.43722923  0.27737345  0.76490664     0.07200
H3376       H  0.45268502  0.21259215  0.66703130     0.02100
H3377       H  0.42722021  0.19707966  0.66182419     0.02600
H3378       H  0.43913996  0.19792435  0.71222499     0.06100
H3379       H  0.39156009  0.21297620  0.57876755     0.05100
H3380       H  0.40095393  0.23155922  0.61918724    -0.00700
H3381       H  0.39744024  0.20837788  0.63259752     0.00800
H3382       H  0.48839579  0.25869696  0.55925491     0.04500
H3383       H  0.48140595  0.24168204  0.51614533     0.06400
H3384       H  0.48490686  0.23541850  0.57062066     0.07300
C3385       C  0.41136366  0.20606286  0.09850282    -0.22300
C3386       C  0.42703766  0.20996801  0.12487036     0.09600
C3387       C  0.44532148  0.21835432  0.10619239     0.10000
C3388       C  0.44770727  0.22350257  0.06185675    -0.17300
C3389       C  0.43220539  0.22027096  0.03511428    -0.27700
C3390       C  0.41363923  0.21098725  0.05366807     0.18400
C3391       C  0.42429883  0.20544636  0.17226400     0.12300
C3392       C  0.46236297  0.22186886  0.13312304    -0.12000
H3393       H  0.46193564  0.23027247  0.04822512     0.12600
C3394       C  0.39619262  0.20642149  0.02713359    -0.22900
H3395       H  0.39733408  0.19934115  0.11329111     0.08200
C3396       C  0.42707778  0.21934413  0.20363897     0.04600
C3397       C  0.42679503  0.21521003  0.24842962    -0.20100
C3398       C  0.42385977  0.19752053  0.26252338    -0.12400
C3399       C  0.41989888  0.18320769  0.23091857     0.13300
C3400       C  0.42044409  0.18749078  0.18612724    -0.22800
C3401       C  0.43083109  0.23867722  0.18978103    -0.05900
H3402       H  0.42972151  0.22615922  0.27249728     0.14800
C3403       C  0.41464444  0.16320855  0.24288539    -0.16100
H3404       H  0.41809068  0.17681396  0.16174921     0.09100
H3405       H  0.38301721  0.19917081  0.04722309     0.07000
H3406       H  0.39459197  0.19677785  0.99961971     0.08200
H3407       H  0.39735994  0.21967657  0.01406860     0.07200
H3408       H  0.46016849  0.20819373  0.14615529     0.02100
H3409       H  0.46437473  0.23147390  0.16100873     0.02600
H3410       H  0.47564350  0.22852027  0.11333927     0.06100
H3411       H  0.43271546  0.24786242  0.21853110     0.05100
H3412       H  0.41865449  0.23716855  0.17010560    -0.00700
H3413       H  0.44396418  0.24590328  0.16960500     0.00800
H3414       H  0.40103493  0.15306839  0.22658651     0.04500
H3415       H  0.41242412  0.16028790  0.27854327     0.06400
H3416       H  0.42592167  0.16035653  0.23134556     0.07300
C3417       C  0.13420607  0.00872506  0.01688287    -0.22300
C3418       C  0.14935828  0.01823469  0.98737852     0.09600
C3419       C  0.15835824  0.00880212  0.96957920     0.10000
C3420       C  0.15262546  0.99033360  0.98342464    -0.17300
C3421       C  0.13833742  0.98116312  0.01523788    -0.27700
C3422       C  0.12859053  0.99024910  0.03127256     0.18400
C3423       C  0.15772947  0.03887586  0.98088040     0.12300
C3424       C  0.17477842  0.01863386  0.93794807    -0.12000
H3425       H  0.16012486  0.98340599  0.97120552     0.12600
C3426       C  0.11334408  0.98121840  0.06588121    -0.22900
H3427       H  0.12753067  0.01621452  0.03059480     0.08200
C3428       C  0.15333628  0.04644065  0.94422728     0.04600
C3429       C  0.16389860  0.06607613  0.93665220    -0.20100
C3430       C  0.17872601  0.07839365  0.96510464    -0.12400
C3431       C  0.18229772  0.07066710  0.00332534     0.13300
C3432       C  0.17173944  0.05102375  0.01049769    -0.22800
C3433       C  0.13759163  0.03377881  0.91316081    -0.05900
H3434       H  0.16075551  0.07172344  0.90767698     0.14800
C3435       C  0.19711669  0.08274304  0.03689262    -0.16100
H3436       H  0.17482651  0.04494467  0.03878367     0.09100
H3437       H  0.10770957  0.99059992  0.07552350     0.07000
H3438       H  0.11923455  0.97824434  0.09576876     0.08200
H3439       H  0.10127771  0.96778467  0.05310617     0.07200
H3440       H  0.18659711  0.03144134  0.95365988     0.02100
H3441       H  0.17013852  0.02293891  0.90801203     0.02600
H3442       H  0.18033547  0.00925760  0.92768483     0.06100
H3443       H  0.13592102  0.04200308  0.88620645     0.05100
H3444       H  0.12393398  0.02623099  0.93141169    -0.00700
H3445       H  0.14062474  0.02317006  0.89821691     0.00800
H3446       H  0.19704926  0.07427102  0.06552995     0.04500
H3447       H  0.19426608  0.09386461  0.04942961     0.06400
H3448       H  0.21151249  0.08933078  0.02201599     0.07300
C3449       C  0.34992134  0.23255607  0.90432999    -0.22300
C3450       C  0.33906563  0.21358651  0.91769834     0.09600
C3451       C  0.34823931  0.20324344  0.92733830     0.10000
C3452       C  0.36805459  0.21204767  0.92286895    -0.17300
C3453       C  0.37906036  0.23095720  0.90852281    -0.27700
C3454       C  0.36975880  0.24133332  0.89878403     0.18400
C3455       C  0.31800200  0.20438436  0.91924161     0.12300
C3456       C  0.33711022  0.18289618  0.94245807    -0.12000
H3457       H  0.37501555  0.20401565  0.93043238     0.12600
C3458       C  0.37975103  0.26114305  0.88001392    -0.22900
H3459       H  0.34274387  0.24034829  0.89649501     0.08200
C3460       C  0.30850103  0.20682896  0.95515511     0.04600
C3461       C  0.28851823  0.19627954  0.95693297    -0.20100
C3462       C  0.27776751  0.18312245  0.92382448    -0.12400
C3463       C  0.28740874  0.18144509  0.88670102     0.13300
C3464       C  0.30737237  0.19217329  0.88494061    -0.22800
C3465       C  0.31948819  0.22011310  0.99220134    -0.05900
H3466       H  0.28132989  0.19776898  0.98532459     0.14800
C3467       C  0.27692358  0.16853838  0.84858933    -0.16100
H3468       H  0.31483888  0.19062667  0.85717232     0.09100
H3469       H  0.37905405  0.27105392  0.90395479     0.07000
H3470       H  0.37248486  0.26133195  0.84929456     0.08200
H3471       H  0.39477437  0.26650496  0.87118338     0.07200
H3472       H  0.32683923  0.17397460  0.91666509     0.02100
H3473       H  0.32923082  0.18197422  0.97301867     0.02600
H3474       H  0.34653556  0.17700468  0.94939492     0.06100
H3475       H  0.30990062  0.22017968  0.01811124     0.05100
H3476       H  0.32816064  0.23479491  0.97942153    -0.00700
H3477       H  0.32904033  0.21568019  0.00745326     0.00800
H3478       H  0.28669988  0.17030387  0.82116861     0.04500
H3479       H  0.26613248  0.17183497  0.83574455     0.06400
H3480       H  0.26991765  0.15347028  0.85900773     0.07300
C3481       C  0.15010473  0.16038016  0.05350175    -0.22300
C3482       C  0.13589206  0.15826285  0.02404371     0.09600
C3483       C  0.13373972  0.14879589  0.98373705     0.10000
C3484       C  0.14628843  0.14226504  0.97320369    -0.17300
C3485       C  0.16162556  0.14603398  0.00076457    -0.27700
C3486       C  0.16306929  0.15445505  0.04226933     0.18400
C3487       C  0.12593852  0.16902588  0.03245706     0.12300
C3488       C  0.11927120  0.14699101  0.95026225    -0.12000
H3489       H  0.14524665  0.13586285  0.94134685     0.12600
C3490       C  0.17835625  0.15772100  0.07490067    -0.22900
H3491       H  0.15176428  0.16766849  0.08441442     0.08200
C3492       C  0.10759269  0.16075955  0.05106802     0.04600
C3493       C  0.09917601  0.17203242  0.05777014    -0.20100
C3494       C  0.10885027  0.19148880  0.04703354    -0.12400
C3495       C  0.12719959  0.19954884  0.02741771     0.13300
C3496       C  0.13545528  0.18823576  0.02103397    -0.22800
C3497       C  0.09725411  0.14030490  0.06535350    -0.05900
H3498       H  0.08528623  0.16577803  0.07313162     0.14800
C3499       C  0.13862979  0.21981454  0.01158751    -0.16100
H3500       H  0.14950745  0.19445316  0.00640056     0.09100
H3501       H  0.17165287  0.15065016  0.10640984     0.07000
H3502       H  0.18764415  0.17317185  0.08084894     0.08200
H3503       H  0.18733482  0.15185838  0.06368323     0.07200
H3504       H  0.12203676  0.16130811  0.94078396     0.02100
H3505       H  0.10471966  0.13871467  0.96403403     0.02600
H3506       H  0.11986550  0.13968154  0.92000963     0.06100
H3507       H  0.08317716  0.13614818  0.08000583     0.05100
H3508       H  0.10584868  0.13803827  0.09035178    -0.00700
H3509       H  0.09488672  0.13088574  0.03688759     0.00800
H3510       H  0.15163914  0.22765259  0.03199732     0.04500
H3511       H  0.13079955  0.22759335  0.01183140     0.06400
H3512       H  0.14297702  0.21993709  0.97693572     0.07300
C3513       C  0.21370070  0.12901517  0.23438717    -0.22300
C3514       C  0.23165863  0.13454772  0.21702164     0.09600
C3515       C  0.24590729  0.13510165  0.24440290     0.10000
C3516       C  0.24143560  0.12898229  0.28824849    -0.17300
C3517       C  0.22304995  0.12239337  0.30528245    -0.27700
C3518       C  0.20915361  0.12300147  0.27806362     0.18400
C3519       C  0.23465377  0.13920337  0.16963362     0.12300
C3520       C  0.26577287  0.14222723  0.22745747    -0.12000
H3521       H  0.25222567  0.12889558  0.30892895     0.12600
C3522       C  0.18953233  0.11762143  0.29438532    -0.22900
H3523       H  0.20301432  0.12904487  0.21314774     0.08200
C3524       C  0.23155291  0.12524412  0.13807768     0.04600
C3525       C  0.23165779  0.12939513  0.09332867    -0.20100
C3526       C  0.23387223  0.14681425  0.07943710    -0.12400
C3527       C  0.23781409  0.16109552  0.11108113     0.13300
C3528       C  0.23803033  0.15702517  0.15581571    -0.22800
C3529       C  0.22693462  0.10558973  0.15161903    -0.05900
H3530       H  0.22883962  0.11853827  0.06915510     0.14800
C3531       C  0.24209600  0.18080305  0.09913043    -0.16100
H3532       H  0.24037486  0.16767833  0.18021878     0.09100
H3533       H  0.18115185  0.10217932  0.30128712     0.07000
H3534       H  0.18142459  0.12071503  0.26963746     0.08200
H3535       H  0.19066468  0.12582750  0.32449512     0.07200
H3536       H  0.27191956  0.15710294  0.21601296     0.02100
H3537       H  0.26555325  0.13333886  0.19963950     0.02600
H3538       H  0.27523259  0.14190539  0.25333459     0.06100
H3539       H  0.22458906  0.09633710  0.12272059     0.05100
H3540       H  0.21376774  0.09887224  0.17177869    -0.00700
H3541       H  0.23877744  0.10629367  0.17111461     0.00800
H3542       H  0.23065059  0.18314919  0.11190434     0.04500
H3543       H  0.24357335  0.18352608  0.06331925     0.06400
H3544       H  0.25582137  0.19139710  0.11424833     0.07300
C3545       C  0.21558008  0.09840970  0.74831175    -0.22300
C3546       C  0.22106188  0.11260623  0.71638434     0.09600
C3547       C  0.22470360  0.13079640  0.72883979     0.10000
C3548       C  0.22221290  0.13423485  0.77278172    -0.17300
C3549       C  0.21620893  0.11993858  0.80474416    -0.27700
C3550       C  0.21293843  0.10174632  0.79238483     0.18400
C3551       C  0.22126574  0.10782588  0.66945592     0.12300
C3552       C  0.23117009  0.14656571  0.69564428    -0.12000
H3553       H  0.22484986  0.14818066  0.78225343     0.12600
C3554       C  0.20563807  0.08519336  0.82369711    -0.22900
H3555       H  0.21261600  0.08439386  0.73841799     0.08200
C3556       C  0.23685492  0.10744815  0.65021491     0.04600
C3557       C  0.23680104  0.10437870  0.60469936    -0.20100
C3558       C  0.22152871  0.10179779  0.57819064    -0.12400
C3559       C  0.20544876  0.10113690  0.59814530     0.13300
C3560       C  0.20566698  0.10437535  0.64338890    -0.22800
C3561       C  0.25369101  0.11079209  0.67752568    -0.05900
H3562       H  0.24897871  0.10461054  0.58954199     0.14800
C3563       C  0.18756324  0.09654166  0.57333551    -0.16100
H3564       H  0.19355753  0.10430640  0.65854458     0.09100
H3565       H  0.21638748  0.08068785  0.82701940     0.07000
H3566       H  0.19229807  0.07312420  0.81044750     0.08200
H3567       H  0.20226912  0.08826293  0.85680455     0.07200
H3568       H  0.22015841  0.14261671  0.66986650     0.02100
H3569       H  0.24464094  0.14918119  0.68013261     0.02600
H3570       H  0.23374625  0.16001235  0.71103225     0.06100
H3571       H  0.26476412  0.11020938  0.65732955     0.05100
H3572       H  0.24902983  0.09975391  0.70342490    -0.00700
H3573       H  0.26016977  0.12499373  0.69324521     0.00800
H3574       H  0.17515019  0.08436791  0.58934241     0.04500
H3575       H  0.18761173  0.09240051  0.53873335     0.06400
H3576       H  0.18547386  0.10898504  0.57410090     0.07300
C3577       C  0.47595115  0.63031471  0.19620287    -0.22300
C3578       C  0.46574965  0.63983375  0.19155792     0.09600
C3579       C  0.44595080  0.63003190  0.19894105     0.10000
C3580       C  0.43667408  0.61067576  0.20984589    -0.17300
C3581       C  0.44679446  0.60096486  0.21355646    -0.27700
C3582       C  0.46684509  0.61111383  0.20802580     0.18400
C3583       C  0.47607327  0.65971338  0.17598324     0.12300
C3584       C  0.43469334  0.64003149  0.19538284    -0.12000
H3585       H  0.42138526  0.60299154  0.21470872     0.12600
C3586       C  0.47931637  0.60259365  0.21592810    -0.22900
H3587       H  0.49120163  0.63799708  0.19079970     0.08200
C3588       C  0.48822206  0.67488418  0.20368154     0.04600
C3589       C  0.49956595  0.69305205  0.18558844    -0.20100
C3590       C  0.49915251  0.69633733  0.14030226    -0.12400
C3591       C  0.48627701  0.68109080  0.11300876     0.13300
C3592       C  0.47489869  0.66304817  0.13139061    -0.22800
C3593       C  0.48938696  0.67179398  0.25209048    -0.05900
H3594       H  0.50922854  0.70462669  0.20674130     0.14800
C3595       C  0.48512492  0.68319902  0.06405977    -0.16100
H3596       H  0.46555301  0.65121035  0.11050694     0.09100
H3597       H  0.49054307  0.61144251  0.24013037     0.07000
H3598       H  0.48624280  0.60235357  0.18468166     0.08200
H3599       H  0.47161559  0.58807288  0.22964527     0.07200
H3600       H  0.43582552  0.64561164  0.16160132     0.02100
H3601       H  0.44032185  0.65200383  0.21908998     0.02600
H3602       H  0.41938535  0.63034699  0.20274470     0.06100
H3603       H  0.49931850  0.68523070  0.26923812     0.05100
H3604       H  0.49451659  0.66164007  0.25719745    -0.00700
H3605       H  0.47508988  0.66597022  0.26719543     0.00800
H3606       H  0.47476626  0.66959251  0.04817123     0.04500
H3607       H  0.49924170  0.68796387  0.04889433     0.06400
H3608       H  0.48039730  0.69354544  0.05705262     0.07300
C3609       C  0.29362209  0.52567804  0.11525681    -0.22300
C3610       C  0.29995974  0.51660769  0.14409636     0.09600
C3611       C  0.28675627  0.49866304  0.16141480     0.10000
C3612       C  0.26762150  0.49001417  0.14877174    -0.17300
C3613       C  0.26120322  0.49876027  0.11908811    -0.27700
C3614       C  0.27442094  0.51692172  0.10209704     0.18400
C3615       C  0.32058371  0.52522292  0.15383789     0.12300
C3616       C  0.29296058  0.48834256  0.19228065    -0.12000
H3617       H  0.25759500  0.47607828  0.16158184     0.12600
C3618       C  0.26924239  0.52703983  0.06824813    -0.22900
H3619       H  0.30386403  0.53938159  0.10168508     0.08200
C3620       C  0.33267780  0.52235470  0.12557603     0.04600
C3621       C  0.35092007  0.52702248  0.14011266    -0.20100
C3622       C  0.35736856  0.53451648  0.18224316    -0.12400
C3623       C  0.34561853  0.53843874  0.20958975     0.13300
C3624       C  0.32744030  0.53387131  0.19474976    -0.22800
C3625       C  0.32595517  0.51345561  0.08098450    -0.05900
H3626       H  0.35986309  0.52395207  0.11932240     0.14800
C3627       C  0.35097236  0.54603245  0.25575870    -0.16100
H3628       H  0.31805736  0.53595307  0.21644533     0.09100
H3629       H  0.27831240  0.52993054  0.03869288     0.07000
H3630       H  0.27180484  0.54075770  0.08192315     0.08200
H3631       H  0.25427223  0.51881527  0.05728385     0.07200
H3632       H  0.29908810  0.49685514  0.22257091     0.02100
H3633       H  0.30384488  0.48599586  0.17608779     0.02600
H3634       H  0.28087552  0.47429637  0.20208139     0.06100
H3635       H  0.33711855  0.51205600  0.06321096     0.05100
H3636       H  0.32214947  0.52239505  0.06080406    -0.00700
H3637       H  0.31327512  0.49907652  0.08453245     0.00800
H3638       H  0.35088793  0.55957118  0.25846956     0.04500
H3639       H  0.36515585  0.54877175  0.26608369     0.06400
H3640       H  0.34039301  0.53563739  0.27919545     0.07300
C3641       C  0.43220344  0.53865823  0.91880986    -0.22300
C3642       C  0.44153268  0.55091261  0.95412704     0.09600
C3643       C  0.45555235  0.56989459  0.94572105     0.10000
C3644       C  0.45974635  0.57627467  0.90222722    -0.17300
C3645       C  0.45009808  0.56428956  0.86640527    -0.27700
C3646       C  0.43616101  0.54507861  0.87502808     0.18400
C3647       C  0.43559455  0.54413642  0.99982886     0.12300
C3648       C  0.46568283  0.58365923  0.98270806    -0.12000
H3649       H  0.47053641  0.59092169  0.89636529     0.12600
C3650       C  0.42489807  0.53135828  0.83885586    -0.22900
H3651       H  0.42142137  0.52409440  0.92570138     0.08200
C3652       C  0.41857548  0.54200048  0.01737512     0.04600
C3653       C  0.41442553  0.53753405  0.06199048    -0.20100
C3654       C  0.42705526  0.53551335  0.09002327    -0.12400
C3655       C  0.44401026  0.53731047  0.07199360     0.13300
C3656       C  0.44789897  0.54139364  0.02703261    -0.22800
C3657       C  0.40511460  0.54514218  0.98941121    -0.05900
H3658       H  0.40147310  0.53626540  0.07533310     0.14800
C3659       C  0.45812137  0.53496393  0.09945599    -0.16100
H3660       H  0.46093732  0.54304992  0.01315615     0.09100
H3661       H  0.41709653  0.53689045  0.81974209     0.07000
H3662       H  0.41423331  0.51722924  0.85200091     0.08200
H3663       H  0.43457580  0.52924217  0.81690368     0.07200
H3664       H  0.47398235  0.57887649  0.00234874     0.02100
H3665       H  0.45514007  0.58455839  0.00424844     0.02600
H3666       H  0.47570388  0.59814182  0.97034326     0.06100
H3667       H  0.39274251  0.54345850  0.00861982     0.05100
H3668       H  0.39958686  0.53469704  0.96213220    -0.00700
H3669       H  0.41266911  0.55972784  0.97561010     0.00800
H3670       H  0.46985561  0.53574077  0.07919180     0.04500
H3671       H  0.45089340  0.52092735  0.11603330     0.06400
H3672       H  0.46469354  0.54647981  0.12425747     0.07300
C3673       C  0.45691456  0.58295640  0.52409252    -0.22300
C3674       C  0.46105262  0.57054312  0.50137932     0.09600
C3675       C  0.47049215  0.56237531  0.52319761     0.10000
C3676       C  0.47526165  0.56654019  0.56783140    -0.17300
C3677       C  0.47102663  0.57891825  0.59075647    -0.27700
C3678       C  0.46159590  0.58715053  0.56858205     0.18400
C3679       C  0.45427655  0.56548324  0.45551090     0.12300
C3680       C  0.47549745  0.54930524  0.49927949    -0.12000
H3681       H  0.48244546  0.56025612  0.58479954     0.12600
C3682       C  0.45538439  0.59968260  0.59094164    -0.22900
H3683       H  0.44944322  0.58900664  0.50720781     0.08200
C3684       C  0.43577859  0.55047264  0.44640037     0.04600
C3685       C  0.42953076  0.54662917  0.40275389    -0.20100
C3686       C  0.44117058  0.55761118  0.36773957    -0.12400
C3687       C  0.45977894  0.57275071  0.37706148     0.13300
C3688       C  0.46610192  0.57640505  0.42092522    -0.22800
C3689       C  0.42252107  0.53870278  0.48285357    -0.05900
H3690       H  0.41529292  0.53500469  0.39601801     0.14800
C3691       C  0.47276768  0.58562417  0.34150922    -0.16100
H3692       H  0.48020431  0.58805251  0.42845662     0.09100
H3693       H  0.43980631  0.59348853  0.58658256     0.07000
H3694       H  0.46282512  0.61401618  0.57578846     0.08200
H3695       H  0.45813791  0.60124194  0.62670080     0.07200
H3696       H  0.48502205  0.55694349  0.47119092     0.02100
H3697       H  0.46237248  0.53676933  0.48671287     0.02600
H3698       H  0.48293064  0.54418756  0.52103758     0.06100
H3699       H  0.40855024  0.52749536  0.46999362     0.05100
H3700       H  0.41993647  0.54792626  0.50524306    -0.00700
H3701       H  0.42892440  0.53168568  0.50178471     0.00800
H3702       H  0.48631123  0.59724018  0.35518370     0.04500
H3703       H  0.46569637  0.59222551  0.32347480     0.06400
H3704       H  0.47641731  0.57742413  0.31834623     0.07300
C3705       C  0.66057326  0.49188892  0.29272415    -0.22300
C3706       C  0.65068794  0.47518359  0.31720018     0.09600
C3707       C  0.66014109  0.47133623  0.35096841     0.10000
C3708       C  0.67888034  0.48519100  0.36213473    -0.17300
C3709       C  0.68822451  0.50269549  0.34002922    -0.27700
C3710       C  0.67930394  0.50556084  0.30324783     0.18400
C3711       C  0.62997980  0.46315263  0.30948881     0.12300
C3712       C  0.65023193  0.45290264  0.37590103    -0.12000
H3713       H  0.68571129  0.48286790  0.39006548     0.12600
C3714       C  0.68903346  0.52296181  0.27467114    -0.22900
H3715       H  0.65337966  0.49457713  0.26610746     0.08200
C3716       C  0.61695038  0.46630413  0.33339461     0.04600
C3717       C  0.59768781  0.45651581  0.32151498    -0.20100
C3718       C  0.59117315  0.44399891  0.28563586    -0.12400
C3719       C  0.60425529  0.44078732  0.26170064     0.13300
C3720       C  0.62349117  0.45027132  0.27439247    -0.22800
C3721       C  0.62352317  0.48071494  0.37003150    -0.05900
H3722       H  0.58771447  0.45918237  0.33935141     0.14800
C3723       C  0.59888853  0.42862394  0.22097213    -0.16100
H3724       H  0.63367271  0.44830894  0.25546016     0.09100
H3725       H  0.68192157  0.53147344  0.27835513     0.07000
H3726       H  0.68815303  0.51861693  0.23977321     0.08200
H3727       H  0.70431654  0.53194927  0.28251083     0.07200
H3728       H  0.64589178  0.44088822  0.35273457     0.02100
H3729       H  0.63738245  0.45132343  0.39257875     0.02600
H3730       H  0.65964340  0.45213323  0.40122974     0.06100
H3731       H  0.61149605  0.48155390  0.38492302     0.05100
H3732       H  0.63391214  0.49498882  0.35713122    -0.00700
H3733       H  0.63040200  0.47686800  0.39633301     0.00800
H3734       H  0.60756205  0.43737199  0.19283108     0.04500
H3735       H  0.58376952  0.42238322  0.21160967     0.06400
H3736       H  0.60182640  0.41686418  0.22617448     0.07300
C3737       C  0.56063228  0.44332337  0.54932838    -0.22300
C3738       C  0.54426136  0.44427272  0.54039150     0.09600
C3739       C  0.53464673  0.44737064  0.57508704     0.10000
C3740       C  0.54189870  0.44982404  0.61808430    -0.17300
C3741       C  0.55865345  0.44938667  0.62709196    -0.27700
C3742       C  0.56799064  0.44582484  0.59205074     0.18400
C3743       C  0.53752959  0.44162960  0.49420661     0.12300
C3744       C  0.51689281  0.44827291  0.56656307    -0.12000
H3745       H  0.53467277  0.45251645  0.64460656     0.12600
C3746       C  0.58542435  0.44410556  0.59918667    -0.22900
H3747       H  0.56775184  0.44068381  0.52245140     0.08200
C3748       C  0.54567458  0.45664552  0.46369984     0.04600
C3749       C  0.54090517  0.45288673  0.41903917    -0.20100
C3750       C  0.52834225  0.43437704  0.40374089    -0.12400
C3751       C  0.51980042  0.41935928  0.43492553     0.13300
C3752       C  0.52441908  0.42332022  0.47967365    -0.22800
C3753       C  0.55974324  0.47656515  0.47818283    -0.05900
H3754       H  0.54744467  0.46445227  0.39568890     0.14800
C3755       C  0.50677302  0.39879804  0.42309756    -0.16100
H3756       H  0.51840628  0.41180355  0.50331656     0.09100
H3757       H  0.58970109  0.43968670  0.56876175     0.07000
H3758       H  0.58249047  0.43326751  0.62478650     0.08200
H3759       H  0.59765573  0.45799434  0.60919707     0.07200
H3760       H  0.50577981  0.43465121  0.55213875     0.02100
H3761       H  0.52008529  0.45998486  0.54328874     0.02600
H3762       H  0.51113319  0.45084399  0.59724842     0.06100
H3763       H  0.56466867  0.48668568  0.45022301     0.05100
H3764       H  0.57239237  0.47695675  0.49308251    -0.00700
H3765       H  0.55301901  0.48139323  0.50282266     0.00800
H3766       H  0.51309372  0.39027418  0.43478858     0.04500
H3767       H  0.50417492  0.39609566  0.38768228     0.06400
H3768       H  0.49280696  0.39353471  0.43951464     0.07300
C3769       C  0.54944369  0.45756432  0.96860974    -0.22300
C3770       C  0.56224197  0.47204699  0.99645048     0.09600
C3771       C  0.57788296  0.48828498  0.97811663     0.10000
C3772       C  0.58065220  0.48934775  0.93236337    -0.17300
C3773       C  0.56822241  0.47451758  0.90421371    -0.27700
C3774       C  0.55222162  0.45838450  0.92294991     0.18400
C3775       C  0.56021053  0.46848309  0.04458249     0.12300
C3776       C  0.59164004  0.50445499  0.00683502    -0.12000
H3777       H  0.59281845  0.50179875  0.91850457     0.12600
C3778       C  0.53827734  0.44108027  0.89735257    -0.22900
H3779       H  0.53762011  0.44495475  0.98298533     0.08200
C3780       C  0.54529351  0.46809260  0.06914800     0.04600
C3781       C  0.54236528  0.46165732  0.11291756    -0.20100
C3782       C  0.55384811  0.45532548  0.13251396    -0.12400
C3783       C  0.56949961  0.45679274  0.10835514     0.13300
C3784       C  0.57239119  0.46332392  0.06483057    -0.22800
C3785       C  0.53240108  0.47430578  0.04903481    -0.05900
H3786       H  0.53053675  0.46082112  0.13126303     0.14800
C3787       C  0.58333002  0.45157135  0.12778662    -0.16100
H3788       H  0.58383904  0.46370296  0.04572912     0.09100
H3789       H  0.52380690  0.43915680  0.90046492     0.07000
H3790       H  0.53806036  0.42835188  0.91108896     0.08200
H3791       H  0.54158918  0.44157006  0.86222477     0.07200
H3792       H  0.59877058  0.49951604  0.02997703     0.02100
H3793       H  0.58385140  0.51004542  0.02581988     0.02600
H3794       H  0.60284125  0.51627755  0.98716023     0.06100
H3795       H  0.52171996  0.47351371  0.07300401     0.05100
H3796       H  0.52463057  0.46507094  0.02070288    -0.00700
H3797       H  0.54099728  0.48922026  0.03761561     0.00800
H3798       H  0.57619905  0.43604516  0.13348058     0.04500
H3799       H  0.58914039  0.45931470  0.15916077     0.06400
H3800       H  0.59553597  0.45533235  0.10546836     0.07300
C3801       C  0.46744182  0.31746249  0.07456191    -0.22300
C3802       C  0.46065834  0.32980191  0.06539387     0.09600
C3803       C  0.44932575  0.32673561  0.02790792     0.10000
C3804       C  0.44551090  0.31159944  0.99953485    -0.17300
C3805       C  0.45291630  0.29953601  0.00761981    -0.27700
C3806       C  0.46381052  0.30240548  0.04644268     0.18400
C3807       C  0.46737263  0.34667782  0.09403419     0.12300
C3808       C  0.44141419  0.33949374  0.01783490    -0.12000
H3809       H  0.43703507  0.30946738  0.97030828     0.12600
C3810       C  0.47250437  0.29040312  0.05814639    -0.22900
H3811       H  0.47624194  0.32008895  0.10341194     0.08200
C3812       C  0.46088986  0.34501315  0.13760303     0.04600
C3813       C  0.47127521  0.35988001  0.16734151    -0.20100
C3814       C  0.48820136  0.37634410  0.15465720    -0.12400
C3815       C  0.49348794  0.37870880  0.10947457     0.13300
C3816       C  0.48297915  0.36377411  0.07994845    -0.22800
C3817       C  0.44332565  0.32728251  0.15291322    -0.05900
H3818       H  0.46667857  0.35806992  0.20129604     0.14800
C3819       C  0.51036977  0.39654132  0.09176446    -0.16100
H3820       H  0.48772004  0.36494162  0.04618892     0.09100
H3821       H  0.48084506  0.29517826  0.08910260     0.07000
H3822       H  0.48238233  0.29134967  0.03176190     0.08200
H3823       H  0.46113636  0.27542184  0.06308813     0.07200
H3824       H  0.45322118  0.35426917  0.01291812     0.02100
H3825       H  0.43239338  0.33916948  0.04559393     0.02600
H3826       H  0.43256404  0.33495380  0.98759917     0.06100
H3827       H  0.43996205  0.32840743  0.18776411     0.05100
H3828       H  0.44537656  0.31486497  0.14993489    -0.00700
H3829       H  0.43098293  0.32483877  0.13248376     0.00800
H3830       H  0.51115207  0.39628643  0.05534932     0.04500
H3831       H  0.52382736  0.39804221  0.10458935     0.06400
H3832       H  0.50923450  0.40911475  0.10098945     0.07300
C3833       C  0.45683818  0.44435507  0.24791750    -0.22300
C3834       C  0.46606798  0.46412840  0.24336469     0.09600
C3835       C  0.48609913  0.47469562  0.24201188     0.10000
C3836       C  0.49649421  0.46532691  0.24651384    -0.17300
C3837       C  0.48743067  0.44552069  0.25220017    -0.27700
C3838       C  0.46720412  0.43484975  0.25216585     0.18400
C3839       C  0.45461470  0.47368302  0.24153522     0.12300
C3840       C  0.49652150  0.49590809  0.23576816    -0.12000
H3841       H  0.51190064  0.47363724  0.24575475     0.12600
C3842       C  0.45634225  0.41359959  0.25781106    -0.22900
H3843       H  0.44141330  0.43636488  0.24873875     0.08200
C3844       C  0.44632795  0.47511137  0.20210196     0.04600
C3845       C  0.43664864  0.48534823  0.20165755    -0.20100
C3846       C  0.43522145  0.49437055  0.23969752    -0.12400
C3847       C  0.44288964  0.49220607  0.27968635     0.13300
C3848       C  0.45263335  0.48205881  0.27986804    -0.22800
C3849       C  0.44828756  0.46639149  0.16023912    -0.05900
H3850       H  0.43091335  0.48702617  0.17095946     0.14800
C3851       C  0.44079034  0.49997279  0.32300042    -0.16100
H3852       H  0.45883464  0.48072047  0.31023497     0.09100
H3853       H  0.45943262  0.40675542  0.22999214     0.07000
H3854       H  0.44072021  0.40783422  0.25840238     0.08200
H3855       H  0.46037556  0.40971256  0.28930831     0.07200
H3856       H  0.49321229  0.50271507  0.26328468     0.02100
H3857       H  0.49208163  0.49941508  0.20432740     0.02600
H3858       H  0.51218587  0.50198664  0.23478395     0.06100
H3859       H  0.44121658  0.46904905  0.13217354     0.05100
H3860       H  0.44167863  0.45080861  0.16440496    -0.00700
H3861       H  0.46358095  0.47252852  0.15203731     0.00800
H3862       H  0.43455699  0.48835428  0.34762529     0.04500
H3863       H  0.43121549  0.50592620  0.32137896     0.06400
H3864       H  0.45499226  0.51114112  0.33477675     0.07300
C3865       C  0.49984766  0.29877189  0.39073571    -0.22300
C3866       C  0.49643181  0.30383609  0.34921712     0.09600
C3867       C  0.48499638  0.28949041  0.31884926     0.10000
C3868       C  0.47674344  0.27038448  0.33122812    -0.17300
C3869       C  0.47950338  0.26516501  0.37341506    -0.27700
C3870       C  0.49145509  0.27964464  0.40346536     0.18400
C3871       C  0.50383516  0.32417439  0.33898135     0.12300
C3872       C  0.48092230  0.29432132  0.27386432    -0.12000
H3873       H  0.46769672  0.25944096  0.30803626     0.12600
C3874       C  0.49469668  0.27526473  0.44969935    -0.22900
H3875       H  0.50867221  0.30992019  0.41378429     0.08200
C3876       C  0.49510893  0.33398265  0.35623986     0.04600
C3877       C  0.50105801  0.35247203  0.34167102    -0.20100
C3878       C  0.51532282  0.36137493  0.30951493    -0.12400
C3879       C  0.52473007  0.35177134  0.29397360     0.13300
C3880       C  0.51889960  0.33336263  0.30921416    -0.22800
C3881       C  0.47896285  0.32465758  0.38867986    -0.05900
H3882       H  0.49385891  0.35965177  0.35415354     0.14800
C3883       C  0.54085066  0.36059366  0.26131815    -0.16100
H3884       H  0.52568346  0.32577180  0.29667551     0.09100
H3885       H  0.48085907  0.26720510  0.46706612     0.07000
H3886       H  0.50375116  0.28837527  0.46890201     0.08200
H3887       H  0.50202948  0.26689458  0.44906595     0.07200
H3888       H  0.49438119  0.30235690  0.25510883     0.02100
H3889       H  0.47404143  0.30307077  0.27699298     0.02600
H3890       H  0.47126698  0.28139258  0.25471414     0.06100
H3891       H  0.47341905  0.33414745  0.39801555     0.05100
H3892       H  0.48390760  0.32095641  0.41906661    -0.00700
H3893       H  0.46708296  0.31155363  0.37408694     0.00800
H3894       H  0.54731110  0.35157326  0.25576623     0.04500
H3895       H  0.55220478  0.37456196  0.27369546     0.06400
H3896       H  0.53557982  0.36234843  0.22906175     0.07300
C3897       C  0.19517130  0.53451590  0.67916973    -0.22300
C3898       C  0.18955594  0.51992329  0.64825300     0.09600
C3899       C  0.17098051  0.51125553  0.63079483     0.10000
C3900       C  0.15834308  0.51710169  0.64545680    -0.17300
C3901       C  0.16347537  0.53097051  0.67842899    -0.27700
C3902       C  0.18237374  0.53995913  0.69523233     0.18400
C3903       C  0.20215843  0.51189933  0.64001382     0.12300
C3904       C  0.16409622  0.49504882  0.59861427    -0.12000
H3905       H  0.14394749  0.51003910  0.63267610     0.12600
C3906       C  0.18946696  0.55415186  0.73236868    -0.22900
H3907       H  0.20936367  0.54088021  0.69306988     0.08200
C3908       C  0.21403211  0.51666985  0.60281714     0.04600
C3909       C  0.22422200  0.50717675  0.59516907    -0.20100
C3910       C  0.22305985  0.49314919  0.62421755    -0.12400
C3911       C  0.21203801  0.48939933  0.66320787     0.13300
C3912       C  0.20170505  0.49873909  0.67021110    -0.22800
C3913       C  0.21606898  0.53187051  0.57148792    -0.05900
H3914       H  0.23282449  0.51049288  0.56575685     0.14800
C3915       C  0.21105030  0.47577568  0.69811371    -0.16100
H3916       H  0.19285413  0.49550104  0.69922206     0.09100
H3917       H  0.20147500  0.56784652  0.72053092     0.07000
H3918       H  0.19468665  0.54882665  0.75943870     0.08200
H3919       H  0.17866083  0.55690026  0.74678361     0.07200
H3920       H  0.16501673  0.48314290  0.61370170     0.02100
H3921       H  0.17293793  0.49973252  0.56846039     0.02600
H3922       H  0.14907677  0.48964913  0.58882222     0.06100
H3923       H  0.22611489  0.53404928  0.54437271     0.05100
H3924       H  0.22157342  0.54550022  0.58944052    -0.00700
H3925       H  0.20210322  0.52796942  0.55676736     0.00800
H3926       H  0.22562855  0.47980640  0.70910283     0.04500
H3927       H  0.20363041  0.46103657  0.68528183     0.06400
H3928       H  0.20300951  0.47591118  0.72749395     0.07300
C3929       C  0.24979169  0.45183585  0.81811058    -0.22300
C3930       C  0.23072767  0.44415807  0.83016965     0.09600
C3931       C  0.21639688  0.43590567  0.79797995     0.10000
C3932       C  0.22153271  0.43616005  0.75390914    -0.17300
C3933       C  0.24074436  0.44469014  0.74095117    -0.27700
C3934       C  0.25508053  0.45227365  0.77402744     0.18400
C3935       C  0.22630934  0.44687414  0.87579860     0.12300
C3936       C  0.19568428  0.42703204  0.81013994    -0.12000
H3937       H  0.21039037  0.43013230  0.72934951     0.12600
C3938       C  0.27600515  0.46124979  0.76381568    -0.22900
H3939       H  0.26064448  0.45817364  0.84329879     0.08200
C3940       C  0.22624675  0.43558136  0.91088291     0.04600
C3941       C  0.22222144  0.43918464  0.95352551    -0.20100
C3942       C  0.21849235  0.45398401  0.96187814    -0.12400
C3943       C  0.21852907  0.46524063  0.92624103     0.13300
C3944       C  0.22249576  0.46152114  0.88380690    -0.22800
C3945       C  0.23026921  0.41969265  0.90318412    -0.05900
H3946       H  0.22221458  0.43052850  0.98057445     0.14800
C3947       C  0.21380308  0.48078980  0.93191169    -0.16100
H3948       H  0.22261594  0.47008850  0.85645698     0.09100
H3949       H  0.27879702  0.45095150  0.74628662     0.07000
H3950       H  0.28485632  0.46571492  0.79404682     0.08200
H3951       H  0.28065623  0.47414947  0.74356436     0.07200
H3952       H  0.19289231  0.43787494  0.82471035     0.02100
H3953       H  0.19190767  0.41549717  0.83437388     0.02600
H3954       H  0.18626956  0.42086413  0.78109258     0.06100
H3955       H  0.22944154  0.41209505  0.93412503     0.05100
H3956       H  0.24477872  0.42545270  0.88936071    -0.00700
H3957       H  0.21970273  0.40929912  0.87974232     0.00800
H3958       H  0.22466200  0.49233715  0.95271898     0.04500
H3959       H  0.19950137  0.47488734  0.94692356     0.06400
H3960       H  0.21353488  0.48724614  0.89998992     0.07300
C3961       C  0.20637033  0.45594650  0.40507491    -0.22300
C3962       C  0.21312262  0.44742456  0.37566705     0.09600
C3963       C  0.22502830  0.44074653  0.39122105     0.10000
C3964       C  0.23040706  0.44329495  0.43562707    -0.17300
C3965       C  0.22415319  0.45233758  0.46490830    -0.27700
C3966       C  0.21173083  0.45851707  0.44959059     0.18400
C3967       C  0.20888859  0.44709384  0.32814932     0.12300
C3968       C  0.23252691  0.43146535  0.36070480    -0.12000
H3969       H  0.23998599  0.43865012  0.44739864     0.12600
C3970       C  0.20462413  0.46868852  0.47841593    -0.22900
H3971       H  0.19733167  0.46117554  0.39287548     0.08200
C3972       C  0.19308358  0.43148354  0.30829963     0.04600
C3973       C  0.19001194  0.43189500  0.26294156    -0.20100
C3974       C  0.20227344  0.44767912  0.23720680    -0.12400
C3975       C  0.21765903  0.46367650  0.25767119     0.13300
C3976       C  0.22093742  0.46298645  0.30268975    -0.22800
C3977       C  0.17938746  0.41453919  0.33509240    -0.05900
H3978       H  0.17805520  0.41980562  0.24742924     0.14800
C3979       C  0.23036021  0.48207339  0.23392840    -0.16100
H3980       H  0.23281322  0.47512344  0.31831975     0.09100
H3981       H  0.18883192  0.46049815  0.47939472     0.07000
H3982       H  0.20928842  0.48297441  0.46460348     0.08200
H3983       H  0.20992178  0.47063720  0.51260503     0.07200
H3984       H  0.24114261  0.44153499  0.33430437     0.02100
H3985       H  0.22051958  0.41862041  0.34565859     0.02600
H3986       H  0.24166187  0.42707801  0.37827025     0.06100
H3987       H  0.16774433  0.40359898  0.31453398     0.05100
H3988       H  0.17291198  0.41907622  0.36102217    -0.00700
H3989       H  0.18695781  0.40795090  0.35080873     0.00800
H3990       H  0.22992055  0.49386278  0.25113278     0.04500
H3991       H  0.22604336  0.48224185  0.19955317     0.06400
H3992       H  0.24523320  0.48495656  0.23409183     0.07300
C3993       C  0.32688817  0.46326743  0.47078919    -0.22300
C3994       C  0.32436311  0.46995167  0.43033142     0.09600
C3995       C  0.30831084  0.47203147  0.42387616     0.10000
C3996       C  0.29569279  0.46825635  0.45870123    -0.17300
C3997       C  0.29887336  0.46285133  0.50009039    -0.27700
C3998       C  0.31452386  0.46001070  0.50620064     0.18400
C3999       C  0.33988328  0.47744815  0.39741237     0.12300
C4000       C  0.30502023  0.47932143  0.38116797    -0.12000
H4001       H  0.28367334  0.47041495  0.45422247     0.12600
C4002       C  0.31953680  0.45500082  0.54992040    -0.22900
H4003       H  0.33927234  0.46176978  0.47559612     0.08200
C4004       C  0.35661665  0.49509571  0.40424647     0.04600
C4005       C  0.36917465  0.50378716  0.36917848    -0.20100
C4006       C  0.36535589  0.49546925  0.32732670    -0.12400
C4007       C  0.34895498  0.47746779  0.32080899     0.13300
C4008       C  0.33663622  0.46849686  0.35636268    -0.22800
C4009       C  0.36074213  0.50534842  0.44769053    -0.05900
H4010       H  0.38167860  0.51765419  0.37390549     0.14800
C4011       C  0.34312069  0.46798355  0.27651406    -0.16100
H4012       H  0.32369050  0.45500301  0.35122839     0.09100
H4013       H  0.33405961  0.46625375  0.55965401     0.07000
H4014       H  0.31935278  0.44133713  0.54699762     0.08200
H4015       H  0.30975598  0.45363285  0.57675282     0.07200
H4016       H  0.30289203  0.46931004  0.35414382     0.02100
H4017       H  0.31744145  0.49347868  0.37355031     0.02600
H4018       H  0.29218127  0.48080822  0.38260713     0.06100
H4019       H  0.37407688  0.51934594  0.44656705     0.05100
H4020       H  0.36240652  0.49678097  0.47373174    -0.00700
H4021       H  0.34892047  0.50782671  0.45654057     0.00800
H4022       H  0.34226105  0.45396884  0.27792815     0.04500
H4023       H  0.35302559  0.47635043  0.24978130     0.06400
H4024       H  0.32888455  0.46577700  0.26776913     0.07300
C4025       C  0.37768720  0.56203459  0.71110568    -0.22300
C4026       C  0.37068138  0.54726427  0.68025737     0.09600
C4027       C  0.38327893  0.54227788  0.66073393     0.10000
C4028       C  0.40249867  0.55192586  0.67299800    -0.17300
C4029       C  0.40963978  0.56631289  0.70523672    -0.27700
C4030       C  0.39695228  0.57158959  0.72411426     0.18400
C4031       C  0.34991872  0.53608749  0.67089604     0.12300
C4032       C  0.37632026  0.52624216  0.62801648    -0.12000
H4033       H  0.41186147  0.54771312  0.65793413     0.12600
C4034       C  0.40330594  0.58699177  0.75827528    -0.22900
H4035       H  0.36786158  0.56575055  0.72592416     0.08200
C4036       C  0.33737967  0.52151770  0.69952528     0.04600
C4037       C  0.31859968  0.50900210  0.68605532    -0.20100
C4038       C  0.31198645  0.51064429  0.64462180    -0.12400
C4039       C  0.32440496  0.52573134  0.61655182     0.13300
C4040       C  0.34313127  0.53838946  0.63036597    -0.22800
C4041       C  0.34412076  0.51855633  0.74331707    -0.05900
H4042       H  0.30927006  0.49725536  0.70717261     0.14800
C4043       C  0.31906458  0.52818182  0.57058730    -0.16100
H4044       H  0.35283900  0.54944724  0.60829739     0.09100
H4045       H  0.39155429  0.58939994  0.76832363     0.07000
H4046       H  0.41495404  0.60056447  0.74489445     0.08200
H4047       H  0.40822290  0.58293218  0.78818202     0.07200
H4048       H  0.37041817  0.52953028  0.59865959     0.02100
H4049       H  0.36508506  0.51289676  0.64324947     0.02600
H4050       H  0.38794342  0.52384170  0.61683628     0.06100
H4051       H  0.33260890  0.50629977  0.76132125     0.05100
H4052       H  0.34903506  0.53140268  0.76401419    -0.00700
H4053       H  0.35605735  0.51581362  0.73841956     0.00800
H4054       H  0.32049291  0.54240512  0.56747380     0.04500
H4055       H  0.30435618  0.51746011  0.56130259     0.06400
H4056       H  0.32881225  0.52711422  0.54670045     0.07300
C4057       C  0.00337934  0.14750137  0.49256288    -0.22300
C4058       C  0.01158737  0.16229407  0.52324753     0.09600
C4059       C  0.00117178  0.17064913  0.53877240     0.10000
C4060       C  0.98303495  0.16460495  0.52167489    -0.17300
C4061       C  0.97511949  0.15055059  0.48899766    -0.27700
C4062       C  0.98525229  0.14154382  0.47495753     0.18400
C4063       C  0.03210957  0.17112806  0.53283060     0.12300
C4064       C  0.00960164  0.18661894  0.57174344    -0.12000
H4065       H  0.97538403  0.17159679  0.53232174     0.12600
C4066       C  0.97779654  0.12675578  0.43917688    -0.22900
H4067       H  0.01167054  0.14139770  0.48048652     0.08200
C4068       C  0.03913764  0.16564467  0.56883812     0.04600
C4069       C  0.05872039  0.17593303  0.57816879    -0.20100
C4070       C  0.07118946  0.19167498  0.55256303    -0.12400
C4071       C  0.06413559  0.19667554  0.51557677     0.13300
C4072       C  0.04467566  0.18624147  0.50609394    -0.22800
C4073       C  0.02594715  0.14924064  0.59764698    -0.05900
H4074       H  0.06420311  0.17215029  0.60645580     0.14800
C4075       C  0.07705254  0.21278834  0.48559467    -0.16100
H4076       H  0.03907724  0.19019120  0.47824577     0.09100
H4077       H  0.98798234  0.12188336  0.43119930     0.07000
H4078       H  0.97535515  0.13274670  0.40876086     0.08200
H4079       H  0.96427548  0.11417987  0.44985411     0.07200
H4080       H  0.02265241  0.19888746  0.55804707     0.02100
H4081       H  0.01329126  0.18179386  0.60232975     0.02600
H4082       H  0.99950926  0.19153032  0.58038752     0.06100
H4083       H  0.03376469  0.14687448  0.62449937     0.05100
H4084       H  0.01857844  0.13608817  0.57764630    -0.00700
H4085       H  0.01517712  0.15205104  0.61272407     0.00800
H4086       H  0.06917437  0.21412980  0.45731983     0.04500
H4087       H  0.08827964  0.21023920  0.47227643     0.06400
H4088       H  0.08369348  0.22644037  0.50372443     0.07300
C4089       C  0.20881094  0.32240703  0.58098058    -0.22300
C4090       C  0.19966485  0.33303668  0.58556260     0.09600
C4091       C  0.17967735  0.32360404  0.58794983     0.10000
C4092       C  0.16923339  0.30378846  0.58537293    -0.17300
C4093       C  0.17813058  0.29292309  0.57963970    -0.27700
C4094       C  0.19829008  0.30242022  0.57777512     0.18400
C4095       C  0.21101778  0.35407829  0.58747077     0.12300
C4096       C  0.16931112  0.33448755  0.59287409    -0.12000
H4097       H  0.15384257  0.29673442  0.58728989     0.12600
C4098       C  0.20878041  0.29179087  0.57084035    -0.22900
H4099       H  0.22419908  0.32981681  0.57922070     0.08200
C4100       C  0.21835100  0.36372435  0.62749980     0.04600
C4101       C  0.22733512  0.38361991  0.62848969    -0.20100
C4102       C  0.22883688  0.39412832  0.59053056    -0.12400
C4103       C  0.22188258  0.38440672  0.55008743     0.13300
C4104       C  0.21298837  0.36450460  0.54924701    -0.22800
C4105       C  0.21607417  0.35294923  0.66938523    -0.05900
H4106       H  0.23255435  0.39097212  0.65954403     0.14800
C4107       C  0.22387823  0.39439829  0.50703413    -0.16100
H4108       H  0.20729350  0.35699981  0.51854648     0.09100
H4109       H  0.22440105  0.30155694  0.56871771     0.07000
H4110       H  0.20403884  0.28360645  0.53969487     0.08200
H4111       H  0.20602505  0.28198341  0.59874908     0.07200
H4112       H  0.17245887  0.34409189  0.56433947     0.02100
H4113       H  0.17393554  0.34303089  0.62350755     0.02600
H4114       H  0.15364881  0.32489549  0.59451104     0.06100
H4115       H  0.22242681  0.36263023  0.69792897     0.05100
H4116       H  0.22320821  0.34444953  0.66604674    -0.00700
H4117       H  0.20072708  0.34328731  0.67630844     0.00800
H4118       H  0.23097371  0.38985379  0.48270671     0.04500
H4119       H  0.23261162  0.41003800  0.50934911     0.06400
H4120       H  0.20956015  0.39052511  0.49442558     0.07300
C4121       C  0.14059341  0.14713047  0.53888306    -0.22300
C4122       C  0.14860239  0.14895407  0.49723546     0.09600
C4123       C  0.15124135  0.16403698  0.46979070     0.10000
C4124       C  0.14720921  0.17779372  0.48603156    -0.17300
C4125       C  0.14083939  0.17705955  0.52944064    -0.27700
C4126       C  0.13688174  0.16099640  0.55572711     0.18400
C4127       C  0.15687501  0.13682081  0.48603077     0.12300
C4128       C  0.15916017  0.16612469  0.42407068    -0.12000
H4129       H  0.14984656  0.18962692  0.46514912     0.12600
C4130       C  0.12963524  0.15850745  0.60231180    -0.22900
H4131       H  0.13839001  0.13533740  0.55943775     0.08200
C4132       C  0.17387395  0.14004385  0.50630849     0.04600
C4133       C  0.18239718  0.12967000  0.49251023    -0.20100
C4134       C  0.17444946  0.11606020  0.45895576    -0.12400
C4135       C  0.15720856  0.11254492  0.43905946     0.13300
C4136       C  0.14852252  0.12283651  0.45331863    -0.22800
C4137       C  0.18346414  0.15491922  0.54155161    -0.05900
H4138       H  0.19566259  0.13247761  0.50752513     0.14800
C4139       C  0.14815767  0.09904108  0.40111710    -0.16100
H4140       H  0.13550557  0.12041426  0.43772791     0.09100
H4141       H  0.14015299  0.17029851  0.62320672     0.07000
H4142       H  0.12736927  0.14508549  0.61717161     0.08200
H4143       H  0.11574974  0.15802375  0.60292238     0.07200
H4144       H  0.14944775  0.15354702  0.40403509     0.02100
H4145       H  0.17338719  0.16737122  0.42550080     0.02600
H4146       H  0.16072293  0.17892920  0.40730578     0.06100
H4147       H  0.19705173  0.15610730  0.55247098     0.05100
H4148       H  0.17407653  0.15120123  0.57073697    -0.00700
H4149       H  0.18665710  0.16898568  0.52885722     0.00800
H4150       H  0.13372795  0.08758025  0.41074621     0.04500
H4151       H  0.15641502  0.09242546  0.38989199     0.06400
H4152       H  0.14685033  0.10683538  0.37267811     0.07300
C4153       C  0.18120549  0.19339724  0.81702421    -0.22300
C4154       C  0.19548515  0.20405692  0.78648279     0.09600
C4155       C  0.21384604  0.20657479  0.79224393     0.10000
C4156       C  0.21691840  0.19663794  0.82608046    -0.17300
C4157       C  0.20207946  0.18461901  0.85452286    -0.27700
C4158       C  0.18424442  0.18375147  0.85114753     0.18400
C4159       C  0.19006472  0.21112093  0.74747283     0.12300
C4160       C  0.23016935  0.21995741  0.76333824    -0.12000
H4161       H  0.23071293  0.19776288  0.82939031     0.12600
C4162       C  0.16826336  0.17275836  0.88332348    -0.22900
H4163       H  0.16731621  0.19203492  0.81306510     0.08200
C4164       C  0.18564298  0.20116147  0.70716864     0.04600
C4165       C  0.17784401  0.20656880  0.67291578    -0.20100
C4166       C  0.17317416  0.22079347  0.67896798    -0.12400
C4167       C  0.17761815  0.23079312  0.71921209     0.13300
C4168       C  0.18616364  0.22591786  0.75287505    -0.22800
C4169       C  0.18749538  0.18376863  0.70147995    -0.05900
H4170       H  0.17399938  0.19865449  0.64233093     0.14800
C4171       C  0.17337754  0.24649130  0.72782558    -0.16100
H4172       H  0.18911408  0.23320111  0.78420791     0.09100
H4173       H  0.16244357  0.15730553  0.87905395     0.07000
H4174       H  0.15628167  0.17543096  0.87833020     0.08200
H4175       H  0.17351081  0.17704510  0.91745033     0.07200
H4176       H  0.23243257  0.23450838  0.76677082     0.02100
H4177       H  0.22716255  0.21565005  0.72841883     0.02600
H4178       H  0.24358206  0.22036776  0.77255968     0.06100
H4179       H  0.18268350  0.17730696  0.66843952     0.05100
H4180       H  0.17860316  0.17293753  0.72633864    -0.00700
H4181       H  0.20247609  0.18737471  0.70548289     0.00800
H4182       H  0.16279572  0.24221202  0.75478140     0.04500
H4183       H  0.16776063  0.25010845  0.69852540     0.06400
H4184       H  0.18663893  0.25954026  0.73781253     0.07300
C4185       C  0.10863861  0.22458875  0.28262685    -0.22300
C4186       C  0.12440399  0.24189553  0.29457399     0.09600
C4187       C  0.13411717  0.25601655  0.26260877     0.10000
C4188       C  0.12745249  0.25258240  0.21905387    -0.17300
C4189       C  0.11147318  0.23518048  0.20671193    -0.27700
C4190       C  0.10202076  0.22090881  0.23931628     0.18400
C4191       C  0.13003892  0.24449977  0.34129420     0.12300
C4192       C  0.15145603  0.27459466  0.27455328    -0.12000
H4193       H  0.13486164  0.26351999  0.19453384     0.12600
C4194       C  0.08477925  0.20179104  0.22973960    -0.22900
H4195       H  0.10140491  0.21386694  0.30773355     0.08200
C4196       C  0.12073452  0.24985856  0.37223073     0.04600
C4197       C  0.12388267  0.24879150  0.41711294    -0.20100
C4198       C  0.13575517  0.24201299  0.43198722    -0.12400
C4199       C  0.14516554  0.23668984  0.40054553     0.13300
C4200       C  0.14242253  0.23840263  0.35563071    -0.22800
C4201       C  0.10705440  0.25616712  0.35782102    -0.05900
H4202       H  0.11668002  0.25292661  0.44081654     0.14800
C4203       C  0.15705956  0.22786547  0.41203494    -0.16100
H4204       H  0.14908493  0.23381507  0.33151771     0.09100
H4205       H  0.07904664  0.19301364  0.25985336     0.07000
H4206       H  0.08860602  0.19370945  0.20662900     0.08200
H4207       H  0.07323992  0.20364109  0.21572615     0.07200
H4208       H  0.16263288  0.27194650  0.28777733     0.02100
H4209       H  0.14771354  0.28196723  0.29988237     0.02600
H4210       H  0.15740120  0.28411645  0.24563599     0.06100
H4211       H  0.10102973  0.25992885  0.38625376     0.05100
H4212       H  0.09505848  0.24457900  0.33935190    -0.00700
H4213       H  0.11451418  0.26883519  0.33634691     0.00800
H4214       H  0.15128933  0.21401922  0.39486632     0.04500
H4215       H  0.15720765  0.22490362  0.44727656     0.06400
H4216       H  0.17193611  0.23733215  0.40098911     0.07300
C4217       C  0.10233688  0.23009836  0.86476739    -0.22300
C4218       C  0.10555656  0.24616784  0.84105286     0.09600
C4219       C  0.10508514  0.26118313  0.86299482     0.10000
C4220       C  0.10194130  0.26000034  0.90865690    -0.17300
C4221       C  0.09920272  0.24410485  0.93266451    -0.27700
C4222       C  0.09904544  0.22880093  0.91023316     0.18400
C4223       C  0.10876237  0.24645479  0.79300336     0.12300
C4224       C  0.10751187  0.27822117  0.83810426    -0.12000
H4225       H  0.10172629  0.27155888  0.92573912     0.12600
C4226       C  0.09457089  0.21071242  0.93363209    -0.22900
H4227       H  0.10229170  0.21845750  0.84744502     0.08200
C4228       C  0.12727254  0.25487230  0.77506365     0.04600
C4229       C  0.12951862  0.25312446  0.72983791    -0.20100
C4230       C  0.11373449  0.24237570  0.70268710    -0.12400
C4231       C  0.09518751  0.23433589  0.72047577     0.13300
C4232       C  0.09294928  0.23659281  0.76540224    -0.22800
C4233       C  0.14463023  0.26466227  0.80397196    -0.05900
H4234       H  0.14368866  0.25907778  0.71616505     0.14800
C4235       C  0.07749777  0.22321787  0.69309437    -0.16100
H4236       H  0.07876055  0.23010009  0.77930451     0.09100
H4237       H  0.10576739  0.21354555  0.95806199     0.07000
H4238       H  0.09383918  0.19982243  0.91050810     0.08200
H4239       H  0.08059973  0.20469910  0.95049477     0.07200
H4240       H  0.09619410  0.27361789  0.81283450     0.02100
H4241       H  0.12158786  0.28558523  0.82167833     0.02600
H4242       H  0.10655527  0.28856290  0.86016846     0.06100
H4243       H  0.15798148  0.27017598  0.78469368     0.05100
H4244       H  0.14431165  0.25448378  0.82864701    -0.00700
H4245       H  0.14499470  0.27680437  0.82126185     0.00800
H4246       H  0.06928494  0.20842087  0.70546987     0.04500
H4247       H  0.08061901  0.22278361  0.65780121     0.06400
H4248       H  0.06850530  0.22986375  0.69562417     0.07300
loop_ 
_geom_bond_atom_site_label_1 
_geom_bond_atom_site_label_2 
_geom_bond_distance 
_geom_bond_site_symmetry_2 
_ccdc_geom_bond_type 
O1          Cr19   1.971       .  S
O1            C9   1.262       .  A
O2          Cr19   2.001       .  S
O2            C3   1.264       .  A
C3            O4   1.260       .  A
C3         C4070   1.473       .  S
O4          Cr20   1.980       .  S
O5          Cr20   2.000       .  S
O5            C6   1.263       .  A
C6            O7   1.264       .  A
C6         C4125   1.500       .  S
O7          Cr21   1.993       .  S
O8          Cr21   2.015       .  S
O8            C9   1.267       .  A
C9         C4198   1.483       .  S
O10         Cr19   1.989       .  S
O10          C18   1.262       .  A
O11         Cr19   1.989       .  S
O11          C12   1.262       .  A
C12          O13   1.264       .  A
C12        C4230   1.474       .  S
O13         Cr20   2.005       .  S
O14         Cr20   1.974       .  S
O14          C15   1.260       .  A
C15          O16   1.266       .  A
C15        C4166   1.472       .  S
O16         Cr21   2.012       .  S
O17         Cr21   1.999       .  S
O17          C18   1.263       .  A
C18        C4093   1.492       .  S
Cr19         O22   1.765       .  S
Cr20         O22   1.769       .  S
Cr21         O22   1.774       .  S
O23         Cr41   2.018       .  S
O23          C31   1.272       .  A
O24         Cr41   1.971       .  S
O24          C25   1.257       .  A
C25          O26   1.268       .  A
C25        C3910   1.499       .  S
O26         Cr42   2.020       .  S
O27         Cr42   1.990       .  S
O27          C28   1.262       .  A
C28          O29   1.264       .  A
C28        C4038   1.481       .  S
O29         Cr43   2.005       .  S
O30         Cr43   1.966       .  S
O30          C31   1.260       .  A
C31        C3933   1.493       .  S
O32         Cr41   1.981       .  S
O32          C40   1.258       .  A
O33         Cr41   2.019       .  S
O33          C34   1.267       .  A
C34          O35   1.257       .  A
C34        C3965   1.478       .  S
O35         Cr42   1.968       .  S
O36         Cr42   2.001       .  S
O36          C37   1.267       .  A
C37          O38   1.263       .  A
C37        C3997   1.470       .  S
O38         Cr43   1.980       .  S
O39         Cr43   2.009       .  S
O39          C40   1.263       .  A
C40        C4102   1.484       .  S
Cr41         O44   1.772       .  S
Cr42         O44   1.772       .  S
Cr43         O44   1.774       .  S
O45         Cr63   1.974       .  S
O45          C53   1.262       .  A
O46         Cr63   2.006       .  S
O46          C47   1.266       .  A
C47          O48   1.261       .  A
C47        C3718   1.476       .  S
O48         Cr64   1.983       .  S
O49         Cr64   2.004       .  S
O49          C50   1.262       .  A
C50          O51   1.260       .  A
C50        C3878   1.493       .  S
O51         Cr65   1.982       .  S
O52         Cr65   2.025       .  S
O52          C53   1.270       .  A
C53        C3750   1.491       .  S
O54         Cr63   2.004       .  S
O54          C62   1.265       .  A
O55         Cr63   1.992       .  S
O55          C56   1.264       .  A
C56          O57   1.264       .  A
C56        C3782   1.490       .  S
O57         Cr64   2.003       .  S
O58         Cr64   1.967       .  S
O58          C59   1.258       .  A
C59          O60   1.271       .  A
C59        C3814   1.494       .  S
O60         Cr65   2.020       .  S
O61         Cr65   1.985       .  S
O61          C62   1.259       .  A
C62        C3837   1.495       .  S
Cr63         O66   1.768       .  S
Cr64         O66   1.769       .  S
Cr65         O66   1.772       .  S
O67         Cr85   2.014       .  S
O67          C75   1.268       .  A
O68         Cr85   1.969       .  S
O68          C69   1.257       .  A
C69          O70   1.265       .  A
C69        C3581   1.477       .  S
O70         Cr86   2.010       .  S
O71         Cr86   1.982       .  S
O71          C72   1.261       .  A
C72          O73   1.267       .  A
C72        C3622   1.479       .  S
O73         Cr87   2.012       .  S
O74         Cr87   1.974       .  S
O74          C75   1.263       .  A
C75        C3654   1.491       .  S
O76         Cr85   1.973       .  S
O76          C84   1.257       .  A
O77         Cr85   2.017       .  S
O77          C78   1.267       .  A
C78          O79   1.258       .  A
C78        C3686   1.488       .  S
O79         Cr86   1.965       .  S
O80         Cr86   1.999       .  S
O80          C81   1.266       .  A
C81          O82   1.263       .  A
C81        C4006   1.472       .  S
O82         Cr87   1.985       .  S
O83         Cr87   2.019       .  S
O83          C84   1.266       .  A
C84        C3846   1.485       .  S
Cr85         O88   1.769       .  S
Cr86         O88   1.770       .  S
Cr87         O88   1.772       .  S
O89        Cr107   2.010   1_554  S
O89          C97   1.266       .  A
O90        Cr107   1.977       .  S
O90          C91   1.258       .  A
C91          O92   1.264       .  A
C91        C3430   1.492       .  S
O92        Cr108   2.003       .  S
O93        Cr108   1.983       .  S
O93          C94   1.263       .  A
C94          O95   1.268       .  A
C94        C3485   1.477   1_556  S
O95        Cr109   2.009       .  S
O96        Cr109   1.974   1_554  S
O96          C97   1.260       .  A
C97        C3526   1.480       .  S
O98        Cr107   1.973       .  S
O98         C106   1.258       .  A
O99        Cr107   2.014       .  S
O99         C100   1.267       .  A
C100        O101   1.260       .  A
C100       C3549   1.479       .  S
O101       Cr108   1.973       .  S
O102       Cr108   1.989       .  S
O102        C103   1.261       .  A
C103        O104   1.264       .  A
C103       C4157   1.482       .  S
O104       Cr109   1.996       .  S
O105       Cr109   2.014       .  S
O105        C106   1.266       .  A
C106       C3462   1.491       .  S
Cr107       O110   1.773       .  S
Cr108       O110   1.773       .  S
Cr109       O110   1.774       .  S
O111       Cr129   1.969       .  S
O111        C119   1.264       .  A
O112       Cr129   2.003       .  S
O112        C113   1.265       .  A
C113        O114   1.260       .  A
C113       C3293   1.475       .  S
O114       Cr130   1.981       .  S
O115       Cr130   2.000       .  S
O115        C116   1.262       .  A
C116        O117   1.262       .  A
C116       C3325   1.498       .  S
O117       Cr131   1.986       .  S
O118       Cr131   2.019       .  S
O118        C119   1.270       .  A
C119       C3357   1.496       .  S
O120       Cr129   1.999       .  S
O120        C128   1.262       .  A
O121       Cr129   1.987       .  S
O121        C122   1.263       .  A
C122        O123   1.266       .  A
C122       C3389   1.491   1_556  S
O123       Cr130   1.999       .  S
O124       Cr130   1.964       .  S
O124        C125   1.257       .  A
C125        O126   1.270       .  A
C125       C3805   1.491   1_556  S
O126       Cr131   2.020       .  S
O127       Cr131   1.990       .  S
O127        C128   1.260       .  A
C128       C3453   1.487       .  S
Cr129       O132   1.767       .  S
Cr130       O132   1.763       .  S
Cr131       O132   1.768       .  S
O133       Cr151   2.012       .  S
O133        C141   1.266       .  A
O134       Cr151   1.963       .  S
O134        C135   1.258       .  A
C135        O136   1.269       .  A
C135       C3197   1.484       .  S
O136       Cr152   2.012       .  S
O137       Cr152   1.981       .  S
O137        C138   1.257       .  A
C138        O139   1.261       .  A
C138       C3302   1.491       .  S
O139       Cr153   1.991       .  S
O140       Cr153   1.981       .  S
O140        C141   1.259       .  A
C141       C3133   1.473       .  S
O142       Cr151   1.976       .  S
O142        C150   1.259       .  A
O143       Cr151   2.003       .  S
O143        C144   1.264       .  A
C144        O145   1.260       .  A
C144       C3165   1.482       .  S
O145       Cr152   1.986       .  S
O146       Cr152   2.022       .  S
O146        C147   1.269       .  A
C147        O148   1.262       .  A
C147       C3261   1.475       .  S
O148       Cr153   1.976       .  S
O149       Cr153   1.999       .  S
O149        C150   1.263       .  A
C150       C3229   1.473       .  S
Cr151       O154   1.773       .  S
Cr152       O154   1.776       .  S
Cr153       O154   1.774       .  S
O155       Cr173   2.012       .  S
O155        C163   1.266       .  A
O156       Cr173   1.979       .  S
O156        C157   1.264       .  A
C157        O158   1.265       .  A
C157       C3014   1.486       .  S
O158       Cr174   2.005       .  S
O159       Cr174   1.986       .  S
O159        C160   1.259       .  A
C160        O161   1.260       .  A
C160       C3101   1.492       .  S
O161       Cr175   1.988       .  S
O162       Cr175   1.981       .  S
O162        C163   1.260       .  A
C163       C2982   1.484       .  S
O164       Cr173   1.997       .  S
O164        C172   1.265       .  A
O165       Cr173   1.999       .  S
O165        C166   1.263       .  A
C166        O167   1.260       .  A
C166       C3174   1.476       .  S
O167       Cr174   1.982       .  S
O168       Cr174   2.008       .  S
O168        C169   1.266       .  A
C169        O170   1.261       .  A
C169       C3078   1.469       .  S
O170       Cr175   1.970       .  S
O171       Cr175   2.000       .  S
O171        C172   1.262       .  A
C172       C3037   1.496       .  S
Cr173       O176   1.770       .  S
Cr174       O176   1.777       .  S
Cr175       O176   1.768       .  S
O177       Cr195   2.001       .  S
O177        C185   1.263       .  A
O178       Cr195   1.972       .  S
O178        C179   1.262       .  A
C179        O180   1.269       .  A
C179       C3558   1.478       .  S
O180       Cr196   2.018       .  S
O181       Cr196   1.978       .  S
O181        C182   1.258       .  A
C182        O183   1.265       .  A
C182       C2941   1.493       .  S
O183       Cr197   2.006       .  S
O184       Cr197   1.994       .  S
O184        C185   1.263       .  A
C185       C4134   1.482       .  S
O186       Cr195   1.989       .  S
O186        C194   1.265       .  A
O187       Cr195   2.001       .  S
O187        C188   1.261       .  A
C188        O189   1.257       .  A
C188       C2909   1.472       .  S
O189       Cr196   1.984       .  S
O190       Cr196   2.011       .  S
O190        C191   1.267       .  A
C191        O192   1.263       .  A
C191       C2877   1.499       .  S
O192       Cr197   1.979       .  S
O193       Cr197   2.002       .  S
O193        C194   1.266       .  A
C194       C3517   1.489       .  S
Cr195       O198   1.771       .  S
Cr196       O198   1.771       .  S
Cr197       O198   1.767       .  S
O199       Cr217   1.973       .  S
O199        C207   1.258       .  A
O200       Cr217   2.009       .  S
O200        C201   1.267       .  A
C201        O202   1.260       .  A
C201       C3398   1.479       .  S
O202       Cr218   1.973       .  S
O203       Cr218   1.997       .  S
O203        C204   1.266       .  A
C204        O205   1.261       .  A
C204       C2845   1.490       .  S
O205       Cr219   1.983       .  S
O206       Cr219   2.009       .  S
O206        C207   1.263       .  A
C207       C3869   1.488       .  S
O208       Cr217   2.011       .  S
O208        C216   1.267       .  A
O209       Cr217   1.974       .  S
O209        C210   1.257       .  A
C210        O211   1.265       .  A
C210       C2918   1.495       .  S
O211       Cr218   2.009       .  S
O212       Cr218   1.995       .  S
O212        C213   1.265       .  A
C213        O214   1.266       .  A
C213       C3270   1.478       .  S
O214       Cr219   2.005       .  S
O215       Cr219   1.966       .  S
O215        C216   1.260       .  A
C216       C3366   1.473       .  S
Cr217       O220   1.771       .  S
Cr218       O220   1.770       .  S
Cr219       O220   1.772       .  S
O221       Cr239   1.979       .  S
O221        C229   1.259       .  A
O222       Cr239   2.016       .  S
O222        C223   1.271   1_554  A
C223        O224   1.261       .  A
C223       C2781   1.492       .  S
O224       Cr240   1.970   1_556  S
O225       Cr240   1.997       .  S
O225        C226   1.265       .  A
C226        O227   1.261       .  A
C226       C3421   1.478       .  S
O227       Cr241   1.983       .  S
O228       Cr241   2.010       .  S
O228        C229   1.264       .  A
C229       C2726   1.499       .  S
O230       Cr239   2.020       .  S
O230        C238   1.268       .  A
O231       Cr239   1.974       .  S
O231        C232   1.256       .  A
C232        O233   1.261       .  A
C232       C2749   1.482       .  S
O233       Cr240   2.004       .  S
O234       Cr240   1.996       .  S
O234        C235   1.266       .  A
C235        O236   1.266       .  A
C235       C2886   1.487       .  S
O236       Cr241   2.004       .  S
O237       Cr241   1.959       .  S
O237        C238   1.258       .  A
C238       C2822   1.481       .  S
Cr239       O242   1.773       .  S
Cr240       O242   1.775       .  S
Cr241       O242   1.768       .  S
O243       Cr261   1.999       .  S
O243        C251   1.262       .  A
O244       Cr261   1.967       .  S
O244        C245   1.261       .  A
C245        O246   1.269       .  A
C245       C2653   1.481       .  S
O246       Cr262   2.011       .  S
O247       Cr262   1.971       .  S
O247        C248   1.258       .  A
C248        O249   1.266       .  A
C248       C2621   1.487       .  S
O249       Cr263   2.009       .  S
O250       Cr263   1.983       .  S
O250        C251   1.259       .  A
C251       C2589   1.471       .  S
O252       Cr261   1.977       .  S
O252        C260   1.262       .  A
O253       Cr261   1.993       .  S
O253        C254   1.260       .  A
C254        O255   1.259       .  A
C254       C2758   1.472       .  S
O255       Cr262   1.986       .  S
O256       Cr262   2.008       .  S
O256        C257   1.265       .  A
C257        O258   1.259       .  A
C257       C3069   1.477   1_554  S
O258       Cr263   1.970       .  S
O259       Cr263   2.008       .  S
O259        C260   1.269       .  A
C260       C2685   1.479   1_554  S
Cr261       O264   1.768       .  S
Cr262       O264   1.770       .  S
Cr263       O264   1.770       .  S
O265       Cr283   1.964       .  S
O265        C273   1.259       .  A
O266       Cr283   2.006       .  S
O266        C267   1.266       .  A
C267        O268   1.262       .  A
C267       C3110   1.479       .  S
O268       Cr284   1.984       .  S
O269       Cr284   2.002       .  S
O269        C270   1.263       .  A
C270        O271   1.258       .  A
C270       C2525   1.499       .  S
O271       Cr285   1.985       .  S
O272       Cr285   2.021       .  S
O272        C273   1.272       .  A
C273       C2694   1.495       .  S
O274       Cr283   2.007       .  S
O274        C282   1.264       .  A
O275       Cr283   1.980       .  S
O275        C276   1.261       .  A
C276        O277   1.262       .  A
C276       C2662   1.487       .  S
O277       Cr284   1.998       .  S
O278       Cr284   1.965       .  S
O278        C279   1.261       .  A
C279        O280   1.271       .  A
C279       C2566   1.479       .  S
O280       Cr285   2.024       .  S
O281       Cr285   1.985       .  S
O281        C282   1.259       .  A
C282       C2493   1.487       .  S
Cr283       O286   1.771       .  S
Cr284       O286   1.772       .  S
Cr285       O286   1.776       .  S
O287       Cr305   1.974       .  S
O287        C295   1.261       .  A
O288       Cr305   2.004       .  S
O288        C289   1.266       .  A
C289        O290   1.262       .  A
C289       C2950   1.495       .  S
O290       Cr306   1.991       .  S
O291       Cr306   2.006       .  S
O291        C292   1.263       .  A
C292        O293   1.260       .  A
C292       C2461   1.490       .  S
O293       Cr307   1.984       .  S
O294       Cr307   2.008       .  S
O294        C295   1.268       .  A
C295       C2813   1.490       .  S
O296       Cr305   2.001       .  S
O296        C304   1.262       .  A
O297       Cr305   1.985       .  S
O297        C298   1.261       .  A
C298        O299   1.268       .  A
C298       C2790   1.486       .  S
O299       Cr306   2.010       .  S
O300       Cr306   1.968       .  S
O300        C301   1.261       .  A
C301        O302   1.268       .  A
C301       C2429   1.477       .  S
O302       Cr307   2.008       .  S
O303       Cr307   1.986       .  S
O303        C304   1.259       .  A
C304       C2502   1.477       .  S
Cr305       O308   1.766       .  S
Cr306       O308   1.770       .  S
Cr307       O308   1.771       .  S
O309       Cr327   1.970       .  S
O309        C317   1.263       .  A
O310       Cr327   2.002       .  S
O310        C311   1.264       .  A
C311        O312   1.263       .  A
C311       C2237   1.486       .  S
O312       Cr328   1.995       .  S
O313       Cr328   2.008       .  S
O313        C314   1.265       .  A
C314        O315   1.256       .  A
C314       C2406   1.493       .  S
O315       Cr329   1.974       .  S
O316       Cr329   2.015       .  S
O316        C317   1.270       .  A
C317       C2301   1.477       .  S
O318       Cr327   2.001       .  S
O318        C326   1.261       .  A
O319       Cr327   1.979       .  S
O319        C320   1.262       .  A
C320        O321   1.268       .  A
C320       C2342   1.482       .  S
O321       Cr328   2.012       .  S
O322       Cr328   1.967       .  S
O322        C323   1.259       .  A
C323        O324   1.268       .  A
C323       C2269   1.480       .  S
O324       Cr329   2.014       .  S
O325       Cr329   1.983       .  S
O325        C326   1.258       .  A
C326       C2365   1.482       .  S
Cr327       O330   1.771       .  S
Cr328       O330   1.774       .  S
Cr329       O330   1.775       .  S
O331       Cr349   1.975       .  S
O331        C339   1.262       .  A
O332       Cr349   2.002       .  S
O332        C333   1.264       .  A
C333        O334   1.262       .  A
C333       C2141   1.490       .  S
O334       Cr350   1.994       .  S
O335       Cr350   2.000       .  S
O335        C336   1.262       .  A
C336        O337   1.260       .  A
C336       C2598   1.486       .  S
O337       Cr351   1.980       .  S
O338       Cr351   2.017       .  S
O338        C339   1.271       .  A
C339       C2182   1.490       .  S
O340       Cr349   1.996       .  S
O340        C348   1.261       .  A
O341       Cr349   1.981       .  S
O341        C342   1.263       .  A
C342        O343   1.267       .  A
C342       C2205   1.475       .  S
O343       Cr350   2.004       .  S
O344       Cr350   1.971       .  S
O344        C345   1.261       .  A
C345        O346   1.269       .  A
C345       C2557   1.482       .  S
O346       Cr351   2.019       .  S
O347       Cr351   1.991       .  S
O347        C348   1.260       .  A
C348       C2374   1.480       .  S
Cr349       O352   1.770       .  S
Cr350       O352   1.771       .  S
Cr351       O352   1.773       .  S
O353       Cr371   2.016       .  S
O353        C361   1.270       .  A
O354       Cr371   1.974       .  S
O354        C355   1.260       .  A
C355        O356   1.264       .  A
C355       C1981   1.498       .  S
O356       Cr372   2.005       .  S
O357       Cr372   1.985       .  S
O357        C358   1.257       .  A
C358        O359   1.263       .  A
C358       C2045   1.487       .  S
O359       Cr373   2.006       .  S
O360       Cr373   1.972       .  S
O360        C361   1.264       .  A
C361       C2077   1.487       .  S
O362       Cr371   1.983       .  S
O362        C370   1.257       .  A
O363       Cr371   2.011       .  S
O363        C364   1.266       .  A
C364        O365   1.259       .  A
C364       C2109   1.484   1_556  S
O365       Cr372   1.967       .  S
O366       Cr372   2.009       .  S
O366        C367   1.270       .  A
C367        O368   1.263       .  A
C367       C2278   1.467       .  S
O368       Cr373   1.979       .  S
O369       Cr373   2.008       .  S
O369        C370   1.261       .  A
C370       C2013   1.475       .  S
Cr371       O374   1.767       .  S
Cr372       O374   1.768       .  S
Cr373       O374   1.775       .  S
O375       Cr393   1.965       .  S
O375        C383   1.263   1_556  A
O376       Cr393   2.003       .  S
O376        C377   1.266       .  A
C377        O378   1.260       .  A
C377       C1885   1.490       .  S
O378       Cr394   1.983       .  S
O379       Cr394   2.007       .  S
O379        C380   1.263       .  A
C380        O381   1.261       .  A
C380       C2717   1.498       .  S
O381       Cr395   1.982       .  S
O382       Cr395   2.022   1_554  S
O382        C383   1.273       .  A
C383       C1917   1.480       .  S
O384       Cr393   1.993       .  S
O384        C392   1.261       .  A
O385       Cr393   1.987       .  S
O385        C386   1.264       .  A
C386        O387   1.265       .  A
C386       C1949   1.492       .  S
O387       Cr394   2.006       .  S
O388       Cr394   1.955       .  S
O388        C389   1.256       .  A
C389        O390   1.270       .  A
C389       C2438   1.477       .  S
O390       Cr395   2.020       .  S
O391       Cr395   1.990       .  S
O391        C392   1.259       .  A
C392       C2022   1.497       .  S
Cr393       O396   1.765       .  S
Cr394       O396   1.765       .  S
Cr395       O396   1.771       .  S
O397       Cr415   2.004       .  S
O397        C405   1.264       .  A
O398       Cr415   1.969       .  S
O398        C399   1.260       .  A
C399        O400   1.271       .  A
C399       C1958   1.490       .  S
O400       Cr416   2.018       .  S
O401       Cr416   1.979       .  S
O401        C402   1.258       .  A
C402        O403   1.265       .  A
C402       C1862   1.496       .  S
O403       Cr417   2.002       .  S
O404       Cr417   1.983       .  S
O404        C405   1.260       .  A
C405       C2470   1.474       .  S
O406       Cr415   1.981       .  S
O406        C414   1.261       .  A
O407       Cr415   2.003       .  S
O407        C408   1.263       .  A
C408        O409   1.261       .  A
C408       C1821   1.485       .  S
O409       Cr416   1.988       .  S
O410       Cr416   2.021       .  S
O410        C411   1.270       .  A
C411        O412   1.258       .  A
C411       C1798   1.494       .  S
O412       Cr417   1.969       .  S
O413       Cr417   2.004       .  S
O413        C414   1.267       .  A
C414       C1926   1.489       .  S
Cr415       O418   1.770       .  S
Cr416       O418   1.772       .  S
Cr417       O418   1.771       .  S
O419       Cr437   1.973       .  S
O419        C427   1.258       .  A
O420       Cr437   2.016       .  S
O420        C421   1.270       .  A
C421        O422   1.260       .  A
C421       C2118   1.487       .  S
O422       Cr438   1.973       .  S
O423       Cr438   1.998       .  S
O423        C424   1.264       .  A
C424        O425   1.261       .  A
C424       C3709   1.479       .  S
O425       Cr439   1.988       .  S
O426       Cr439   2.007       .  S
O426        C427   1.265       .  A
C427       C2397   1.484       .  S
O428       Cr437   2.011       .  S
O428        C436   1.266       .  A
O429       Cr437   1.984       .  S
O429        C430   1.260       .  A
C430        O431   1.262       .  A
C430       C1830   1.493       .  S
O431       Cr438   2.007       .  S
O432       Cr438   1.990       .  S
O432        C433   1.264       .  A
C433        O434   1.266       .  A
C433       C1766   1.472       .  S
O434       Cr439   2.003       .  S
O435       Cr439   1.967       .  S
O435        C436   1.260       .  A
C436       C2086   1.489       .  S
Cr437       O440   1.772       .  S
Cr438       O440   1.768       .  S
Cr439       O440   1.772       .  S
O441       Cr459   1.972       .  S
O441        C449   1.259       .  A
O442       Cr459   2.024       .  S
O442        C443   1.269       .  A
C443        O444   1.262       .  A
C443       C3773   1.492       .  S
O444       Cr460   1.976       .  S
O445       Cr460   2.003       .  S
O445        C446   1.266       .  A
C446        O447   1.262       .  A
C446       C1990   1.475       .  S
O447       Cr461   1.981       .  S
O448       Cr461   2.016       .  S
O448        C449   1.265       .  A
C449       C3334   1.500       .  S
O450       Cr459   2.022       .  S
O450        C458   1.269       .  A
O451       Cr459   1.971       .  S
O451        C452   1.255       .  A
C452        O453   1.265       .  A
C452       C1725   1.494       .  S
O453       Cr460   2.010       .  S
O454       Cr460   1.991       .  S
O454        C455   1.264       .  A
C455        O456   1.265       .  A
C455       C1757   1.478       .  S
O456       Cr461   2.001       .  S
O457       Cr461   1.965       .  S
O457        C458   1.257       .  A
C458       C3741   1.489       .  S
Cr459       O462   1.769       .  S
Cr460       O462   1.770       .  S
Cr461       O462   1.772       .  S
O463       Cr481   1.968       .  S
O463        C471   1.257       .  A
O464       Cr481   2.016       .  S
O464        C465   1.268       .  A
C465        O466   1.260       .  A
C465       C3677   1.477       .  S
O466       Cr482   1.974       .  S
O467       Cr482   1.996       .  S
O467        C468   1.265       .  A
C468        O469   1.260       .  A
C468       C1693   1.491       .  S
O469       Cr483   1.983       .  S
O470       Cr483   2.019       .  S
O470        C471   1.265       .  A
C471       C4029   1.500       .  S
O472       Cr481   2.020       .  S
O472        C480   1.268       .  A
O473       Cr481   1.970       .  S
O473        C474   1.256       .  A
C474        O475   1.266       .  A
C474       C1734   1.493       .  S
O475       Cr482   2.013       .  S
O476       Cr482   1.995       .  S
O476        C477   1.266       .  A
C477        O478   1.267       .  A
C477       C1661   1.476       .  S
O478       Cr483   2.006       .  S
O479       Cr483   1.965       .  S
O479        C480   1.260       .  A
C480       C3645   1.495       .  S
Cr481       O484   1.770       .  S
Cr482       O484   1.772       .  S
Cr483       O484   1.768       .  S
O485       Cr503   2.009       .  S
O485        C493   1.265       .  A
O486       Cr503   1.967       .  S
O486        C487   1.263       .  A
C487        O488   1.271       .  A
C487       C1606   1.485       .  S
O488       Cr504   2.019       .  S
O489       Cr504   1.977       .  S
O489        C490   1.258       .  A
C490        O491   1.261       .  A
C490       C3590   1.487       .  S
O491       Cr505   1.996       .  S
O492       Cr505   1.992       .  S
O492        C493   1.261       .  A
C493       C1533   1.483       .  S
O494       Cr503   1.983       .  S
O494        C502   1.263       .  A
O495       Cr503   2.005       .  S
O495        C496   1.264       .  A
C496        O497   1.257       .  A
C496       C1565   1.497       .  S
O497       Cr504   1.980       .  S
O498       Cr504   2.025       .  S
O498        C499   1.271       .  A
C499        O500   1.261       .  A
C499       C1670   1.494   1_554  S
O500       Cr505   1.975       .  S
O501       Cr505   2.005       .  S
O501        C502   1.267       .  A
C502       C1638   1.478   1_554  S
Cr503       O506   1.770       .  S
Cr504       O506   1.771       .  S
Cr505       O506   1.768       .  S
O507       Cr525   2.013       .  S
O507        C515   1.267       .  A
O508       Cr525   1.962   1_556  S
O508        C509   1.261       .  A
C509        O510   1.269       .  A
C509       C1469   1.494       .  S
O510       Cr526   2.023   1_556  S
O511       Cr526   1.980       .  S
O511        C512   1.260       .  A
C512        O513   1.264       .  A
C512       C1894   1.484       .  S
O513       Cr527   1.999       .  S
O514       Cr527   1.975       .  S
O514        C515   1.258       .  A
C515       C1446   1.475       .  S
O516       Cr525   1.986       .  S
O516        C524   1.260       .  A
O517       Cr525   1.993       .  S
O517        C518   1.261       .  A
C518        O519   1.261       .  A
C518       C1574   1.483       .  S
O519       Cr526   1.989       .  S
O520       Cr526   2.018       .  S
O520        C521   1.268       .  A
C521        O522   1.260       .  A
C521       C1789   1.486       .  S
O522       Cr527   1.969       .  S
O523       Cr527   2.005       .  S
O523        C524   1.264       .  A
C524       C1501   1.478       .  S
Cr525       O528   1.766       .  S
Cr526       O528   1.774       .  S
Cr527       O528   1.771       .  S
O529       Cr547   1.969       .  S
O529        C537   1.255       .  A
O530       Cr547   2.018       .  S
O530        C531   1.270       .  A
C531        O532   1.260       .  A
C531       C1341   1.485       .  S
O532       Cr548   1.966       .  S
O533       Cr548   2.004       .  S
O533        C534   1.266       .  A
C534        O535   1.260       .  A
C534       C4061   1.481       .  S
O535       Cr549   1.980       .  S
O536       Cr549   2.005       .  S
O536        C537   1.263       .  A
C537       C1277   1.480       .  S
O538       Cr547   2.022       .  S
O538        C546   1.270       .  A
O539       Cr547   1.971       .  S
O539        C540   1.256       .  A
C540        O541   1.264       .  A
C540       C1309   1.486       .  S
O541       Cr548   2.009       .  S
O542       Cr548   1.992       .  S
O542        C543   1.265       .  A
C543        O544   1.266       .  A
C543       C1405   1.480       .  S
O544       Cr549   2.001       .  S
O545       Cr549   1.958       .  S
O545        C546   1.258       .  A
C546       C1382   1.490       .  S
Cr547       O550   1.773       .  S
Cr548       O550   1.773       .  S
Cr549       O550   1.771       .  S
O551       Cr569   1.965       .  S
O551        C559   1.259       .  A
O552       Cr569   2.024       .  S
O552        C553   1.270       .  A
C553        O554   1.263       .  A
C553       C1213   1.479       .  S
O554       Cr570   1.982       .  S
O555       Cr570   2.006       .  S
O555        C556   1.264       .  A
C556        O557   1.261       .  A
C556       C2246   1.483       .  S
O557       Cr571   1.991       .  S
O558       Cr571   2.018       .  S
O558        C559   1.266       .  A
C559       C1149   1.499       .  S
O560       Cr569   2.021       .  S
O560        C568   1.268       .  A
O561       Cr569   1.975       .  S
O561        C562   1.257       .  A
C562        O563   1.264       .  A
C562       C1318   1.479       .  S
O563       Cr570   2.012       .  S
O564       Cr570   1.990       .  S
O564        C565   1.265       .  A
C565        O566   1.269       .  A
C565       C1181   1.481       .  S
O566       Cr571   2.006       .  S
O567       Cr571   1.970       .  S
O567        C568   1.258       .  A
C568       C1245   1.486       .  S
Cr569       O572   1.771       .  S
Cr570       O572   1.773       .  S
Cr571       O572   1.772       .  S
O573       Cr591   2.006       .  S
O573        C581   1.263       .  A
O574       Cr591   1.973       .  S
O574        C575   1.262   1_554  A
C575        O576   1.271       .  A
C575       C4221   1.481       .  S
O576       Cr592   2.020   1_556  S
O577       Cr592   1.986       .  S
O577        C578   1.260       .  A
C578        O579   1.260       .  A
C578       C1117   1.485       .  S
O579       Cr593   1.995       .  S
O580       Cr593   1.996       .  S
O580        C581   1.264       .  A
C581       C3494   1.490       .  S
O582       Cr591   1.987       .  S
O582        C590   1.263       .  A
O583       Cr591   2.001       .  S
O583        C584   1.261       .  A
C584        O585   1.257       .  A
C584       C1094   1.478       .  S
O585       Cr592   1.985       .  S
O586       Cr592   2.018       .  S
O586        C587   1.269       .  A
C587        O588   1.263       .  A
C587       C1414   1.498       .  S
O588       Cr593   1.971       .  S
O589       Cr593   1.998       .  S
O589        C590   1.262       .  A
C590       C4189   1.489       .  S
Cr591       O594   1.772       .  S
Cr592       O594   1.779       .  S
Cr593       O594   1.769       .  S
O595       Cr613   2.002       .  S
O595        C603   1.264       .  A
O596       Cr613   1.973       .  S
O596        C597   1.261       .  A
C597        O598   1.268       .  A
C597       C3974   1.478       .  S
O598       Cr614   2.012       .  S
O599       Cr614   1.985       .  S
O599        C600   1.258       .  A
C600        O601   1.264       .  A
C600       C2150   1.500       .  S
O601       Cr615   2.003       .  S
O602       Cr615   1.993       .  S
O602        C603   1.263       .  A
C603       C3613   1.483       .  S
O604       Cr613   1.980       .  S
O604        C612   1.262       .  A
O605       Cr613   2.004       .  S
O605        C606   1.263       .  A
C606        O607   1.259       .  A
C606       C1085   1.481       .  S
O607       Cr614   1.988       .  S
O608       Cr614   2.015       .  S
O608        C609   1.268       .  A
C609        O610   1.260       .  A
C609       C1053   1.472       .  S
O610       Cr615   1.972       .  S
O611       Cr615   2.006       .  S
O611        C612   1.265       .  A
C612       C3942   1.485   1_554  S
Cr613       O616   1.774       .  S
Cr614       O616   1.780       .  S
Cr615       O616   1.773       .  S
O617       Cr635   1.968       .  S
O617        C625   1.257       .  A
O618       Cr635   2.023       .  S
O618        C619   1.272       .  A
C619        O620   1.260       .  A
C619       C2333   1.494       .  S
O620       Cr636   1.968       .  S
O621       Cr636   2.002       .  S
O621        C622   1.265       .  A
C622        O623   1.261       .  A
C622       C1030   1.489       .  S
O623       Cr637   1.988       .  S
O624       Cr637   2.011       .  S
O624        C625   1.262       .  A
C625       C2054   1.494       .  S
O626       Cr635   2.022       .  S
O626        C634   1.269       .  A
O627       Cr635   1.980       .  S
O627        C628   1.257       .  A
C628        O629   1.264       .  A
C628        C989   1.487       .  S
O629       Cr636   2.009       .  S
O630       Cr636   1.991       .  S
O630        C631   1.265       .  A
C631        O632   1.267       .  A
C631       C1190   1.481       .  S
O632       Cr637   2.003       .  S
O633       Cr637   1.966       .  S
O633        C634   1.260       .  A
C634       C2310   1.497       .  S
Cr635       O638   1.772       .  S
Cr636       O638   1.774       .  S
Cr637       O638   1.772       .  S
O639       Cr657   1.971       .  S
O639        C647   1.255       .  A
O640       Cr657   2.012       .  S
O640        C641   1.269       .  A
C641        O642   1.261       .  A
C641       C2214   1.483       .  S
O642       Cr658   1.967       .  S
O643       Cr658   2.010       .  S
O643        C644   1.265       .  A
C644        O645   1.262       .  A
C644       C3901   1.492       .  S
O645       Cr659   1.994       .  S
O646       Cr659   2.015       .  S
O646        C647   1.266       .  A
C647       C2534   1.497       .  S
O648       Cr657   2.017       .  S
O648        C656   1.268       .  A
O649       Cr657   1.976       .  S
O649        C650   1.256       .  A
C650        O651   1.265       .  A
C650        C998   1.493       .  S
O651       Cr658   2.016       .  S
O652       Cr658   1.988       .  S
O652        C653   1.265       .  A
C653        O654   1.267       .  A
C653       C1062   1.479       .  S
O654       Cr659   2.002       .  S
O655       Cr659   1.975       .  S
O655        C656   1.261       .  A
C656       C2173   1.495       .  S
Cr657       O660   1.774       .  S
Cr658       O660   1.776       .  S
Cr659       O660   1.773       .  S
O661       Cr679   1.977       .  S
O661        C669   1.262       .  A
O662       Cr679   1.997       .  S
O662        C663   1.264       .  A
C663        O664   1.262       .  A
C663       C1853   1.477       .  S
O664       Cr680   1.987       .  S
O665       Cr680   2.007       .  S
O665        C666   1.265       .  A
C666        O667   1.258       .  A
C666       C1286   1.484       .  S
O667       Cr681   1.973       .  S
O668       Cr681   2.018       .  S
O668        C669   1.269       .  A
C669       C1510   1.486       .  S
O670       Cr679   1.998       .  S
O670        C678   1.262       .  A
O671       Cr679   1.983       .  S
O671        C672   1.262       .  A
C672        O673   1.267       .  A
C672       C1478   1.492       .  S
O673       Cr680   2.007       .  S
O674       Cr680   1.977       .  S
O674        C675   1.263       .  A
C675        O676   1.267       .  A
C675        C925   1.496       .  S
O676       Cr681   2.014       .  S
O677       Cr681   1.974       .  S
O677        C678   1.257       .  A
C678        C957   1.470       .  S
Cr679       O682   1.768       .  S
Cr680       O682   1.770       .  S
Cr681       O682   1.770       .  S
O683       Cr701   2.010       .  S
O683        C691   1.265       .  A
O684       Cr701   1.964       .  S
O684        C685   1.256       .  A
C685        O686   1.266       .  A
C685       C1702   1.481       .  S
O686       Cr702   2.013       .  S
O687       Cr702   1.976       .  S
O687        C688   1.260       .  A
C688        O689   1.266       .  A
C688       C2973   1.469       .  S
O689       Cr703   2.004       .  S
O690       Cr703   1.973       .  S
O690        C691   1.261       .  A
C691       C1629   1.495       .  S
O692       Cr701   1.967       .  S
O692        C700   1.256       .  A
O693       Cr701   2.018       .  S
O693        C694   1.265       .  A
C694        O695   1.255       .  A
C694       C1597   1.470       .  S
O695       Cr702   1.958       .  S
O696       Cr702   2.005       .  S
O696        C697   1.266       .  A
C697        O698   1.264       .  A
C697        C893   1.482       .  S
O698       Cr703   1.989       .  S
O699       Cr703   2.011       .  S
O699        C700   1.267       .  A
C700        C966   1.491       .  S
Cr701       O704   1.770       .  S
Cr702       O704   1.769       .  S
Cr703       O704   1.768       .  S
O705       Cr723   2.013       .  S
O705        C713   1.268       .  A
O706       Cr723   1.959       .  S
O706        C707   1.254       .  A
C707        O708   1.266       .  A
C707       C2854   1.484       .  S
O708       Cr724   2.014       .  S
O709       Cr724   1.986       .  S
O709        C710   1.260       .  A
C710        O711   1.264       .  A
C710       C1158   1.481       .  S
O711       Cr725   2.005       .  S
O712       Cr725   1.974       .  S
O712        C713   1.264       .  A
C713       C3238   1.493       .  S
O714       Cr723   1.972       .  S
O714        C722   1.257       .  A
O715       Cr723   2.018       .  S
O715        C716   1.267       .  A
C716        O717   1.256       .  A
C716       C3206   1.479       .  S
O717       Cr724   1.959       .  S
O718       Cr724   2.005       .  S
O718        C719   1.269       .  A
C719        O720   1.264       .  A
C719        C838   1.475       .  S
O720       Cr725   1.982       .  S
O721       Cr725   2.010       .  S
O721        C722   1.263       .  A
C722        C861   1.484       .  S
Cr723       O726   1.772       .  S
Cr724       O726   1.771       .  S
Cr725       O726   1.774       .  S
O727       Cr745   2.012       .  S
O727        C735   1.269       .  A
O728       Cr745   1.964       .  S
O728        C729   1.257       .  A
C729        O730   1.266       .  A
C729       C2630   1.492       .  S
O730       Cr746   2.018       .  S
O731       Cr746   1.995       .  S
O731        C732   1.264       .  A
C732        O733   1.263       .  A
C732       C1542   1.490       .  S
O733       Cr747   1.998       .  S
O734       Cr747   1.978       .  S
O734        C735   1.261       .  A
C735       C3046   1.496       .  S
O736       Cr745   1.971       .  S
O736        C744   1.256       .  A
O737       Cr745   2.015       .  S
O737        C738   1.265       .  A
C738        O739   1.256       .  A
C738       C3005   1.471       .  S
O739       Cr746   1.963       .  S
O740       Cr746   2.010       .  S
O740        C741   1.268       .  A
C741        O742   1.263       .  A
C741        C902   1.478       .  S
O742       Cr747   1.985       .  S
O743       Cr747   2.010       .  S
O743        C744   1.265       .  A
C744        C870   1.491       .  S
Cr745       O748   1.772       .  S
Cr746       O748   1.775       .  S
Cr747       O748   1.770       .  S
O749       Cr767   2.015       .  S
O749        C757   1.268   1_556  A
O750       Cr767   1.974       .  S
O750        C751   1.257       .  A
C751        O752   1.266       .  A
C751       C1126   1.487       .  S
O752       Cr768   2.014       .  S
O753       Cr768   1.980       .  S
O753        C754   1.261       .  A
C754        O755   1.266       .  A
C754       C1437   1.475       .  S
O755       Cr769   2.004       .  S
O756       Cr769   1.974   1_554  S
O756        C757   1.263       .  A
C757       C1373   1.497       .  S
O758       Cr767   1.975       .  S
O758        C766   1.256       .  A
O759       Cr767   2.019       .  S
O759        C760   1.268       .  A
C760        O761   1.259       .  A
C760       C1350   1.496       .  S
O761       Cr768   1.959       .  S
O762       Cr768   2.006       .  S
O762        C763   1.268       .  A
C763        O764   1.265       .  A
C763        C934   1.489       .  S
O764       Cr769   1.996       .  S
O765       Cr769   2.009       .  S
O765        C766   1.264       .  A
C766        C797   1.496       .  S
Cr767       O770   1.770       .  S
Cr768       O770   1.768       .  S
Cr769       O770   1.770       .  S
O771       Cr789   2.020       .  S
O771        C779   1.270       .  A
O772       Cr789   1.974       .  S
O772        C773   1.258       .  A
C773        O774   1.264       .  A
C773       C1021   1.489       .  S
O774       Cr790   2.003       .  S
O775       Cr790   2.001       .  S
O775        C776   1.263       .  A
C776        O777   1.258       .  A
C776       C3142   1.488       .  S
O777       Cr791   1.989       .  S
O778       Cr791   1.982       .  S
O778        C779   1.263       .  A
C779       C1254   1.481       .  S
O780       Cr789   1.982       .  S
O780        C788   1.259       .  A
O781       Cr789   2.019       .  S
O781        C782   1.267       .  A
C782        O783   1.258       .  A
C782       C1222   1.485   1_556  S
O783       Cr790   1.970       .  S
O784       Cr790   2.006       .  S
O784        C785   1.269       .  A
C785        O786   1.267       .  A
C785        C829   1.480   1_556  S
O786       Cr791   1.990       .  S
O787       Cr791   2.002       .  S
O787        C788   1.260       .  A
C788        C806   1.497       .  S
Cr789       O792   1.777       .  S
Cr790       O792   1.775       .  S
Cr791       O792   1.774       .  S
C793        C794   1.399       .  A
C793        C798   1.405       .  A
C793        H803   1.084       .  S
C794        C799   1.483       .  S
C794        C795   1.408       .  A
C795        C796   1.404       .  A
C795        C800   1.506       .  S
C796        C797   1.411       .  A
C796        H801   1.084       .  S
C797        C798   1.423       .  A
C798        C802   1.507       .  S
C799        C804   1.409       .  A
C799        C808   1.398       .  A
C800        H816   1.110       .  S
C800        H817   1.110       .  S
C800        H818   1.111       .  S
C802        H813   1.109       .  S
C802        H814   1.111       .  S
C802        H815   1.111       .  S
C804        C805   1.402       .  A
C804        C809   1.507       .  S
C805        C806   1.409       .  A
C805        H810   1.084       .  S
C806        C807   1.426       .  A
C807        C808   1.407       .  A
C807        C811   1.509       .  S
C808        H812   1.085       .  S
C809        H819   1.111       .  S
C809        H820   1.110       .  S
C809        H821   1.110       .  S
C811        H822   1.111       .  S
C811        H823   1.110       .  S
C811        H824   1.110       .  S
C825        C826   1.398       .  A
C825        C830   1.396       .  A
C825        H835   1.085       .  S
C826        C831   1.481       .  S
C826        C827   1.412       .  A
C827        C828   1.408   1_554  A
C827        C832   1.505       .  S
C828        C829   1.405   1_556  A
C828        H833   1.084       .  S
C829        C830   1.418       .  A
C830        C834   1.503       .  S
C831        C836   1.413       .  A
C831        C840   1.400       .  A
C832        H848   1.109       .  S
C832        H849   1.110       .  S
C832        H850   1.111   1_554  S
C834        H845   1.111       .  S
C834        H846   1.110       .  S
C834        H847   1.097       .  S
C836        C837   1.406       .  A
C836        C841   1.506       .  S
C837        C838   1.403       .  A
C837        H842   1.084       .  S
C838        C839   1.415       .  A
C839        C840   1.400       .  A
C839        C843   1.508       .  S
C840        H844   1.085       .  S
C841        H851   1.111       .  S
C841        H852   1.109       .  S
C841        H853   1.110       .  S
C843        H854   1.109       .  S
C843        H855   1.110       .  S
C843        H856   1.111       .  S
C857        C858   1.398       .  A
C857        C862   1.403       .  A
C857        H867   1.085       .  S
C858        C863   1.481   1_545  S
C858        C859   1.410       .  A
C859        C860   1.404       .  A
C859        C864   1.506       .  S
C860        C861   1.407       .  A
C860        H865   1.085       .  S
C861        C862   1.423       .  A
C862        C866   1.510       .  S
C863        C868   1.408       .  A
C863        C872   1.399       .  A
C864        H880   1.110       .  S
C864        H881   1.110       .  S
C864        H882   1.111       .  S
C866        H877   1.110       .  S
C866        H878   1.111       .  S
C866        H879   1.103       .  S
C868        C869   1.404       .  A
C868        C873   1.506       .  S
C869        C870   1.409       .  A
C869        H874   1.084       .  S
C870        C871   1.423       .  A
C871        C872   1.405       .  A
C871        C875   1.508       .  S
C872        H876   1.084       .  S
C873        H883   1.111       .  S
C873        H884   1.110   1_565  S
C873        H885   1.110   1_565  S
C875        H886   1.110       .  S
C875        H887   1.110       .  S
C875        H888   1.111       .  S
C889        C890   1.397       .  A
C889        C894   1.396       .  A
C889        H899   1.085       .  S
C890        C895   1.481       .  S
C890        C891   1.411       .  A
C891        C892   1.409       .  A
C891        C896   1.505       .  S
C892        C893   1.408       .  A
C892        H897   1.084       .  S
C893        C894   1.419       .  A
C894        C898   1.506       .  S
C895        C900   1.413       .  A
C895        C904   1.400       .  A
C896        H912   1.110       .  S
C896        H913   1.110       .  S
C896        H914   1.111       .  S
C898        H909   1.111       .  S
C898        H910   1.110       .  S
C898        H911   1.099       .  S
C900        C901   1.406       .  A
C900        C905   1.506       .  S
C901        C902   1.404       .  A
C901        H906   1.085       .  S
C902        C903   1.416       .  A
C903        C904   1.400       .  A
C903        C907   1.504       .  S
C904        H908   1.085       .  S
C905        H915   1.111       .  S
C905        H916   1.109       .  S
C905        H917   1.110       .  S
C907        H918   1.110       .  S
C907        H919   1.111       .  S
C907        H920   1.102       .  S
C921        C922   1.401   1_545  A
C921        C926   1.408   1_545  A
C921        H931   1.084       .  S
C922        C927   1.487   1_565  S
C922        C923   1.411       .  A
C923        C924   1.403       .  A
C923        C928   1.508       .  S
C924        C925   1.408       .  A
C924        H929   1.084       .  S
C925        C926   1.424       .  A
C926        C930   1.508       .  S
C927        C932   1.410       .  A
C927        C936   1.404       .  A
C928        H944   1.110       .  S
C928        H945   1.110       .  S
C928        H946   1.111       .  S
C930        H941   1.111       .  S
C930        H942   1.111   1_565  S
C930        H943   1.110       .  S
C932        C933   1.400       .  A
C932        C937   1.509       .  S
C933        C934   1.407       .  A
C933        H938   1.084       .  S
C934        C935   1.422       .  A
C935        C936   1.410       .  A
C935        C939   1.508       .  S
C936        H940   1.085       .  S
C937        H947   1.111       .  S
C937        H948   1.109       .  S
C937        H949   1.111       .  S
C939        H950   1.111       .  S
C939        H951   1.103       .  S
C939        H952   1.111       .  S
C953        C954   1.401       .  A
C953        C958   1.404       .  A
C953        H963   1.084       .  S
C954        C959   1.476       .  S
C954        C955   1.409       .  A
C955        C956   1.398       .  A
C955        C960   1.507       .  S
C956        C957   1.401       .  A
C956        H961   1.082       .  S
C957        C958   1.417       .  A
C958        C962   1.508       .  S
C959        C964   1.405       .  A
C959        C968   1.398       .  A
C960        H976   1.110       .  S
C960        H977   1.110       .  S
C960        H978   1.111       .  S
C962        H973   1.111       .  S
C962        H974   1.110       .  S
C962        H975   1.106       .  S
C964        C965   1.403       .  A
C964        C969   1.506       .  S
C965        C966   1.411       .  A
C965        H970   1.083       .  S
C966        C967   1.423       .  A
C967        C968   1.402       .  A
C967        C971   1.509       .  S
C968        H972   1.085       .  S
C969        H979   1.111       .  S
C969        H980   1.110       .  S
C969        H981   1.110       .  S
C971        H982   1.111       .  S
C971        H983   1.109       .  S
C971        H984   1.110       .  S
C985        C986   1.402       .  A
C985        C990   1.407       .  A
C985        H995   1.083       .  S
C986        C991   1.486   1_655  S
C986        C987   1.410       .  A
C987        C988   1.405       .  A
C987        C992   1.507       .  S
C988        C989   1.407       .  A
C988        H993   1.084       .  S
C989        C990   1.420       .  A
C990        C994   1.508       .  S
C991        C996   1.411       .  A
C991       C1000   1.399       .  A
C992       H1008   1.110       .  S
C992       H1009   1.108       .  S
C992       H1010   1.111       .  S
C994       H1005   1.110       .  S
C994       H1006   1.110       .  S
C994       H1007   1.106       .  S
C996        C997   1.407       .  A
C996       C1001   1.507       .  S
C997        C998   1.408       .  A
C997       H1002   1.084       .  S
C998        C999   1.422       .  A
C999       C1000   1.405       .  A
C999       C1003   1.508       .  S
C1000      H1004   1.085       .  S
C1001      H1011   1.111       .  S
C1001      H1012   1.110       .  S
C1001      H1013   1.108       .  S
C1003      H1014   1.111       .  S
C1003      H1015   1.110       .  S
C1003      H1016   1.105       .  S
C1017      C1018   1.401       .  A
C1017      C1022   1.404       .  A
C1017      H1027   1.084       .  S
C1018      C1023   1.482       .  S
C1018      C1019   1.409       .  A
C1019      C1020   1.405       .  A
C1019      C1024   1.507       .  S
C1020      C1021   1.409       .  A
C1020      H1025   1.084       .  S
C1021      C1022   1.420       .  A
C1022      C1026   1.509       .  S
C1023      C1028   1.411       .  A
C1023      C1032   1.402       .  A
C1024      H1040   1.110       .  S
C1024      H1041   1.108       .  S
C1024      H1042   1.111       .  S
C1026      H1037   1.109       .  S
C1026      H1038   1.111       .  S
C1026      H1039   1.110       .  S
C1028      C1029   1.401       .  A
C1028      C1033   1.509       .  S
C1029      C1030   1.407       .  A
C1029      H1034   1.083       .  S
C1030      C1031   1.419       .  A
C1031      C1032   1.408       .  A
C1031      C1035   1.507       .  S
C1032      H1036   1.084       .  S
C1033      H1043   1.111       .  S
C1033      H1044   1.110       .  S
C1033      H1045   1.108       .  S
C1035      H1046   1.110       .  S
C1035      H1047   1.110       .  S
C1035      H1048   1.111       .  S
C1049      C1050   1.402       .  A
C1049      C1054   1.402   1_556  A
C1049      H1059   1.085       .  S
C1050      C1055   1.483       .  S
C1050      C1051   1.412       .  A
C1051      C1052   1.405       .  A
C1051      C1056   1.506       .  S
C1052      C1053   1.403   1_556  A
C1052      H1057   1.084       .  S
C1053      C1054   1.415       .  A
C1054      C1058   1.508       .  S
C1055      C1060   1.413       .  A
C1055      C1064   1.399       .  A
C1056      H1072   1.109       .  S
C1056      H1073   1.110       .  S
C1056      H1074   1.111       .  S
C1058      H1069   1.110       .  S
C1058      H1070   1.111       .  S
C1058      H1071   1.105       .  S
C1060      C1061   1.408       .  A
C1060      C1065   1.505       .  S
C1061      C1062   1.405       .  A
C1061      H1066   1.084       .  S
C1062      C1063   1.418       .  A
C1063      C1064   1.399       .  A
C1063      C1067   1.511       .  S
C1064      H1068   1.084       .  S
C1065      H1075   1.111       .  S
C1065      H1076   1.109       .  S
C1065      H1077   1.111       .  S
C1067      H1078   1.108       .  S
C1067      H1079   1.111       .  S
C1067      H1080   1.111       .  S
C1081      C1082   1.402       .  A
C1081      C1086   1.404       .  A
C1081      H1091   1.084       .  S
C1082      C1087   1.488       .  S
C1082      C1083   1.412       .  A
C1083      C1084   1.408       .  A
C1083      C1088   1.506       .  S
C1084      C1085   1.404       .  A
C1084      H1089   1.084       .  S
C1085      C1086   1.416       .  A
C1086      C1090   1.506       .  S
C1087      C1092   1.412       .  A
C1087      C1096   1.403       .  A
C1088      H1104   1.110       .  S
C1088      H1105   1.110       .  S
C1088      H1106   1.111       .  S
C1090      H1101   1.111   1_554  S
C1090      H1102   1.110       .  S
C1090      H1103   1.105       .  S
C1092      C1093   1.406       .  A
C1092      C1097   1.506       .  S
C1093      C1094   1.403       .  A
C1093      H1098   1.084       .  S
C1094      C1095   1.416       .  A
C1095      C1096   1.405       .  A
C1095      C1099   1.506       .  S
C1096      H1100   1.085       .  S
C1097      H1107   1.111   1_554  S
C1097      H1108   1.110       .  S
C1097      H1109   1.110       .  S
C1099      H1110   1.110       .  S
C1099      H1111   1.105       .  S
C1099      H1112   1.111       .  S
C1113      C1114   1.401   1_554  A
C1113      C1118   1.408   1_655  A
C1113      H1123   1.084       .  S
C1114      C1119   1.486       .  S
C1114      C1115   1.411       .  A
C1115      C1116   1.405   1_655  A
C1115      C1120   1.507       .  S
C1116      C1117   1.405   1_556  A
C1116      H1121   1.084       .  S
C1117      C1118   1.418       .  A
C1118      C1122   1.508       .  S
C1119      C1124   1.409       .  A
C1119      C1128   1.402   1_556  A
C1120      H1136   1.110       .  S
C1120      H1137   1.110       .  S
C1120      H1138   1.111       .  S
C1122      H1133   1.111       .  S
C1122      H1134   1.109       .  S
C1122      H1135   1.111       .  S
C1124      C1125   1.406       .  A
C1124      C1129   1.506       .  S
C1125      C1126   1.407       .  A
C1125      H1130   1.084       .  S
C1126      C1127   1.421   1_556  A
C1127      C1128   1.406       .  A
C1127      C1131   1.510       .  S
C1128      H1132   1.084       .  S
C1129      H1139   1.111       .  S
C1129      H1140   1.110       .  S
C1129      H1141   1.110       .  S
C1131      H1142   1.111       .  S
C1131      H1143   1.107       .  S
C1131      H1144   1.110       .  S
C1145      C1146   1.403       .  A
C1145      C1150   1.411       .  A
C1145      H1155   1.083       .  S
C1146      C1151   1.487       .  S
C1146      C1147   1.409       .  A
C1147      C1148   1.399       .  A
C1147      C1152   1.509       .  S
C1148      C1149   1.410       .  A
C1148      H1153   1.084       .  S
C1149      C1150   1.423       .  A
C1150      C1154   1.507       .  S
C1151      C1156   1.411       .  A
C1151      C1160   1.402       .  A
C1152      H1168   1.109       .  S
C1152      H1169   1.110       .  S
C1152      H1170   1.111       .  S
C1154      H1165   1.110       .  S
C1154      H1166   1.111       .  S
C1154      H1167   1.110       .  S
C1156      C1157   1.404       .  A
C1156      C1161   1.507       .  S
C1157      C1158   1.405       .  A
C1157      H1162   1.084       .  S
C1158      C1159   1.420       .  A
C1159      C1160   1.406       .  A
C1159      C1163   1.509       .  S
C1160      H1164   1.085       .  S
C1161      H1171   1.111       .  S
C1161      H1172   1.110       .  S
C1161      H1173   1.111       .  S
C1163      H1174   1.110       .  S
C1163      H1175   1.105       .  S
C1163      H1176   1.111       .  S
C1177      C1178   1.402       .  A
C1177      C1182   1.407       .  A
C1177      H1187   1.084       .  S
C1178      C1183   1.482       .  S
C1178      C1179   1.411       .  A
C1179      C1180   1.401       .  A
C1179      C1184   1.509       .  S
C1180      C1181   1.405       .  A
C1180      H1185   1.085       .  S
C1181      C1182   1.419       .  A
C1182      C1186   1.507       .  S
C1183      C1188   1.411       .  A
C1183      C1192   1.398       .  A
C1184      H1200   1.110       .  S
C1184      H1201   1.109       .  S
C1184      H1202   1.111       .  S
C1186      H1197   1.110       .  S
C1186      H1198   1.111       .  S
C1186      H1199   1.104       .  S
C1188      C1189   1.410       .  A
C1188      C1193   1.505       .  S
C1189      C1190   1.407       .  A
C1189      H1194   1.083       .  S
C1190      C1191   1.416       .  A
C1191      C1192   1.398       .  A
C1191      C1195   1.507       .  S
C1192      H1196   1.085       .  S
C1193      H1203   1.111       .  S
C1193      H1204   1.111       .  S
C1193      H1205   1.109       .  S
C1195      H1206   1.111       .  S
C1195      H1207   1.110       .  S
C1195      H1208   1.108       .  S
C1209      C1210   1.403       .  A
C1209      C1214   1.405       .  A
C1209      H1219   1.085       .  S
C1210      C1215   1.489       .  S
C1210      C1211   1.413       .  A
C1211      C1212   1.409       .  A
C1211      C1216   1.506       .  S
C1212      C1213   1.405       .  A
C1212      H1217   1.084       .  S
C1213      C1214   1.416       .  A
C1214      C1218   1.509       .  S
C1215      C1220   1.411       .  A
C1215      C1224   1.405       .  A
C1216      H1232   1.110       .  S
C1216      H1233   1.108       .  S
C1216      H1234   1.111       .  S
C1218      H1229   1.111       .  S
C1218      H1230   1.110       .  S
C1218      H1231   1.108       .  S
C1220      C1221   1.404       .  A
C1220      C1225   1.508       .  S
C1221      C1222   1.405       .  A
C1221      H1226   1.083       .  S
C1222      C1223   1.417       .  A
C1223      C1224   1.410       .  A
C1223      C1227   1.507       .  S
C1224      H1228   1.084       .  S
C1225      H1235   1.111       .  S
C1225      H1236   1.110       .  S
C1225      H1237   1.108       .  S
C1227      H1238   1.110       .  S
C1227      H1239   1.107   1_554  S
C1227      H1240   1.110       .  S
C1241      C1242   1.404       .  A
C1241      C1246   1.408       .  A
C1241      H1251   1.085       .  S
C1242      C1247   1.491       .  S
C1242      C1243   1.412       .  A
C1243      C1244   1.405       .  A
C1243      C1248   1.507       .  S
C1244      C1245   1.407       .  A
C1244      H1249   1.084       .  S
C1245      C1246   1.419       .  A
C1246      C1250   1.508       .  S
C1247      C1252   1.414       .  A
C1247      C1256   1.404       .  A
C1248      H1264   1.110       .  S
C1248      H1265   1.111       .  S
C1248      H1266   1.111       .  S
C1250      H1261   1.111       .  S
C1250      H1262   1.110       .  S
C1250      H1263   1.105       .  S
C1252      C1253   1.405       .  A
C1252      C1257   1.507       .  S
C1253      C1254   1.403       .  A
C1253      H1258   1.085       .  S
C1254      C1255   1.417       .  A
C1255      C1256   1.408       .  A
C1255      C1259   1.508       .  S
C1256      H1260   1.084       .  S
C1257      H1267   1.111       .  S
C1257      H1268   1.109       .  S
C1257      H1269   1.111       .  S
C1259      H1270   1.110       .  S
C1259      H1271   1.107       .  S
C1259      H1272   1.110       .  S
C1273      C1274   1.401       .  A
C1273      C1278   1.402       .  A
C1273      H1283   1.084       .  S
C1274      C1279   1.480       .  S
C1274      C1275   1.409       .  A
C1275      C1276   1.403       .  A
C1275      C1280   1.506       .  S
C1276      C1277   1.406       .  A
C1276      H1281   1.085       .  S
C1277      C1278   1.419       .  A
C1278      C1282   1.509       .  S
C1279      C1284   1.409       .  A
C1279      C1288   1.399       .  A
C1280      H1296   1.110       .  S
C1280      H1297   1.110       .  S
C1280      H1298   1.111       .  S
C1282      H1293   1.111       .  S
C1282      H1294   1.107       .  S
C1282      H1295   1.110       .  S
C1284      C1285   1.405   1_545  A
C1284      C1289   1.506       .  S
C1285      C1286   1.407       .  A
C1285      H1290   1.084       .  S
C1286      C1287   1.420       .  A
C1287      C1288   1.402   1_565  A
C1287      C1291   1.509       .  S
C1288      H1292   1.083       .  S
C1289      H1299   1.111       .  S
C1289      H1300   1.110       .  S
C1289      H1301   1.110       .  S
C1291      H1302   1.111       .  S
C1291      H1303   1.111       .  S
C1291      H1304   1.110       .  S
C1305      C1306   1.399       .  A
C1305      C1310   1.403       .  A
C1305      H1315   1.085       .  S
C1306      C1311   1.481       .  S
C1306      C1307   1.410       .  A
C1307      C1308   1.405       .  A
C1307      C1312   1.506       .  S
C1308      C1309   1.407       .  A
C1308      H1313   1.084       .  S
C1309      C1310   1.420       .  A
C1310      C1314   1.508       .  S
C1311      C1316   1.410       .  A
C1311      C1320   1.401       .  A
C1312      H1328   1.110       .  S
C1312      H1329   1.109       .  S
C1312      H1330   1.111       .  S
C1314      H1325   1.106       .  S
C1314      H1326   1.111       .  S
C1314      H1327   1.110       .  S
C1316      C1317   1.404       .  A
C1316      C1321   1.507       .  S
C1317      C1318   1.406       .  A
C1317      H1322   1.085       .  S
C1318      C1319   1.418       .  A
C1319      C1320   1.404       .  A
C1319      C1323   1.509       .  S
C1320      H1324   1.085       .  S
C1321      H1331   1.111       .  S
C1321      H1332   1.110       .  S
C1321      H1333   1.109       .  S
C1323      H1334   1.110       .  S
C1323      H1335   1.107       .  S
C1323      H1336   1.110       .  S
C1337      C1338   1.397       .  A
C1337      C1342   1.400       .  A
C1337      H1347   1.083       .  S
C1338      C1343   1.480       .  S
C1338      C1339   1.410       .  A
C1339      C1340   1.407       .  A
C1339      C1344   1.506       .  S
C1340      C1341   1.407       .  A
C1340      H1345   1.085       .  S
C1341      C1342   1.420       .  A
C1342      C1346   1.509       .  S
C1343      C1348   1.407       .  A
C1343      C1352   1.401       .  A
C1344      H1360   1.110       .  S
C1344      H1361   1.110       .  S
C1344      H1362   1.111       .  S
C1346      H1357   1.108       .  S
C1346      H1358   1.110       .  S
C1346      H1359   1.111       .  S
C1348      C1349   1.398       .  A
C1348      C1353   1.509       .  S
C1349      C1350   1.411       .  A
C1349      H1354   1.083       .  S
C1350      C1351   1.423       .  A
C1351      C1352   1.409       .  A
C1351      C1355   1.507       .  S
C1352      H1356   1.085       .  S
C1353      H1363   1.111       .  S
C1353      H1364   1.110       .  S
C1353      H1365   1.110       .  S
C1355      H1366   1.111       .  S
C1355      H1367   1.110       .  S
C1355      H1368   1.108       .  S
C1369      C1370   1.400       .  A
C1369      C1374   1.407       .  A
C1369      H1379   1.084       .  S
C1370      C1375   1.481       .  S
C1370      C1371   1.406       .  A
C1371      C1372   1.402       .  A
C1371      C1376   1.507       .  S
C1372      C1373   1.410       .  A
C1372      H1377   1.082       .  S
C1373      C1374   1.424       .  A
C1374      C1378   1.508       .  S
C1375      C1380   1.408       .  A
C1375      C1384   1.400       .  A
C1376      H1392   1.110       .  S
C1376      H1393   1.110       .  S
C1376      H1394   1.111       .  S
C1378      H1389   1.111       .  S
C1378      H1390   1.110       .  S
C1378      H1391   1.110       .  S
C1380      C1381   1.401       .  A
C1380      C1385   1.508       .  S
C1381      C1382   1.409       .  A
C1381      H1386   1.083       .  S
C1382      C1383   1.419       .  A
C1383      C1384   1.406       .  A
C1383      C1387   1.504       .  S
C1384      H1388   1.085       .  S
C1385      H1395   1.111       .  S
C1385      H1396   1.110       .  S
C1385      H1397   1.110       .  S
C1387      H1398   1.111       .  S
C1387      H1399   1.108       .  S
C1387      H1400   1.110       .  S
C1401      C1402   1.398       .  A
C1401      C1406   1.399       .  A
C1401      H1411   1.085       .  S
C1402      C1407   1.481   1_655  S
C1402      C1403   1.412       .  A
C1403      C1404   1.409       .  A
C1403      C1408   1.505   1_655  S
C1404      C1405   1.406       .  A
C1404      H1409   1.084       .  S
C1405      C1406   1.416       .  A
C1406      C1410   1.507       .  S
C1407      C1412   1.409       .  A
C1407      C1416   1.401       .  A
C1408      H1424   1.110       .  S
C1408      H1425   1.108       .  S
C1408      H1426   1.111       .  S
C1410      H1421   1.111       .  S
C1410      H1422   1.109       .  S
C1410      H1423   1.108       .  S
C1412      C1413   1.400       .  A
C1412      C1417   1.510       .  S
C1413      C1414   1.409       .  A
C1413      H1418   1.082       .  S
C1414      C1415   1.424       .  A
C1415      C1416   1.409       .  A
C1415      C1419   1.507       .  S
C1416      H1420   1.084   1_455  S
C1417      H1427   1.111       .  S
C1417      H1428   1.110       .  S
C1417      H1429   1.108       .  S
C1419      H1430   1.110       .  S
C1419      H1431   1.110       .  S
C1419      H1432   1.111       .  S
C1433      C1434   1.399   1_545  A
C1433      C1438   1.398       .  A
C1433      H1443   1.085   1_545  S
C1434      C1439   1.478       .  S
C1434      C1435   1.411   1_564  A
C1435      C1436   1.405       .  A
C1435      C1440   1.506   1_545  S
C1436      C1437   1.405       .  A
C1436      H1441   1.084       .  S
C1437      C1438   1.415   1_556  A
C1438      C1442   1.506       .  S
C1439      C1444   1.410       .  A
C1439      C1448   1.400   1_554  A
C1440      H1456   1.110       .  S
C1440      H1457   1.110       .  S
C1440      H1458   1.111   1_565  S
C1442      H1453   1.111       .  S
C1442      H1454   1.110       .  S
C1442      H1455   1.105       .  S
C1444      C1445   1.405       .  A
C1444      C1449   1.506       .  S
C1445      C1446   1.404       .  A
C1445      H1450   1.084       .  S
C1446      C1447   1.415   1_554  A
C1447      C1448   1.399       .  A
C1447      C1451   1.504       .  S
C1448      H1452   1.084       .  S
C1449      H1459   1.111       .  S
C1449      H1460   1.110       .  S
C1449      H1461   1.110       .  S
C1451      H1462   1.110       .  S
C1451      H1463   1.101       .  S
C1451      H1464   1.111       .  S
C1465      C1466   1.401       .  A
C1465      C1470   1.408       .  A
C1465      H1475   1.087       .  S
C1466      C1471   1.483       .  S
C1466      C1467   1.409       .  A
C1467      C1468   1.399       .  A
C1467      C1472   1.509       .  S
C1468      C1469   1.409       .  A
C1468      H1473   1.083       .  S
C1469      C1470   1.422       .  A
C1470      C1474   1.507       .  S
C1471      C1476   1.409       .  A
C1471      C1480   1.401       .  A
C1472      H1488   1.110       .  S
C1472      H1489   1.110       .  S
C1472      H1490   1.111       .  S
C1474      H1485   1.111       .  S
C1474      H1486   1.110       .  S
C1474      H1487   1.109       .  S
C1476      C1477   1.402       .  A
C1476      C1481   1.507       .  S
C1477      C1478   1.409       .  A
C1477      H1482   1.083       .  S
C1478      C1479   1.421       .  A
C1479      C1480   1.406       .  A
C1479      C1483   1.506       .  S
C1480      H1484   1.084       .  S
C1481      H1491   1.111       .  S
C1481      H1492   1.110       .  S
C1481      H1493   1.110       .  S
C1483      H1494   1.111       .  S
C1483      H1495   1.110       .  S
C1483      H1496   1.111       .  S
C1497      C1498   1.402       .  A
C1497      C1502   1.405       .  A
C1497      H1507   1.082       .  S
C1498      C1503   1.484       .  S
C1498      C1499   1.411       .  A
C1499      C1500   1.405       .  A
C1499      C1504   1.506       .  S
C1500      C1501   1.404       .  A
C1500      H1505   1.085       .  S
C1501      C1502   1.415       .  A
C1502      C1506   1.508       .  S
C1503      C1508   1.411       .  A
C1503      C1512   1.402       .  A
C1504      H1520   1.110       .  S
C1504      H1521   1.110       .  S
C1504      H1522   1.111       .  S
C1506      H1517   1.111       .  S
C1506      H1518   1.111       .  S
C1506      H1519   1.109       .  S
C1508      C1509   1.403       .  A
C1508      C1513   1.508       .  S
C1509      C1510   1.405       .  A
C1509      H1514   1.084       .  S
C1510      C1511   1.419       .  A
C1511      C1512   1.409       .  A
C1511      C1515   1.508       .  S
C1512      H1516   1.084       .  S
C1513      H1523   1.111       .  S
C1513      H1524   1.110       .  S
C1513      H1525   1.110       .  S
C1515      H1526   1.111       .  S
C1515      H1527   1.109       .  S
C1515      H1528   1.111       .  S
C1529      C1530   1.403       .  A
C1529      C1534   1.409       .  A
C1529      H1539   1.084       .  S
C1530      C1535   1.485       .  S
C1530      C1531   1.410       .  A
C1531      C1532   1.403       .  A
C1531      C1536   1.508       .  S
C1532      C1533   1.405       .  A
C1532      H1537   1.084       .  S
C1533      C1534   1.419       .  A
C1534      C1538   1.508       .  S
C1535      C1540   1.411       .  A
C1535      C1544   1.397       .  A
C1536      H1552   1.110       .  S
C1536      H1553   1.110       .  S
C1536      H1554   1.111       .  S
C1538      H1549   1.110       .  S
C1538      H1550   1.110       .  S
C1538      H1551   1.106       .  S
C1540      C1541   1.411       .  A
C1540      C1545   1.505       .  S
C1541      C1542   1.408       .  A
C1541      H1546   1.084       .  S
C1542      C1543   1.423       .  A
C1543      C1544   1.401       .  A
C1543      C1547   1.511       .  S
C1544      H1548   1.084       .  S
C1545      H1555   1.111       .  S
C1545      H1556   1.110       .  S
C1545      H1557   1.110       .  S
C1547      H1558   1.110       .  S
C1547      H1559   1.109       .  S
C1547      H1560   1.111       .  S
C1561      C1562   1.400       .  A
C1561      C1566   1.409       .  A
C1561      H1571   1.084       .  S
C1562      C1567   1.482       .  S
C1562      C1563   1.408       .  A
C1563      C1564   1.401       .  A
C1563      C1568   1.508       .  S
C1564      C1565   1.410       .  A
C1564      H1569   1.083       .  S
C1565      C1566   1.424       .  A
C1566      C1570   1.508       .  S
C1567      C1572   1.411       .  A
C1567      C1576   1.398       .  A
C1568      H1584   1.110       .  S
C1568      H1585   1.110       .  S
C1568      H1586   1.111       .  S
C1570      H1581   1.110       .  S
C1570      H1582   1.111       .  S
C1570      H1583   1.110       .  S
C1572      C1573   1.408       .  A
C1572      C1577   1.505       .  S
C1573      C1574   1.406       .  A
C1573      H1578   1.084       .  S
C1574      C1575   1.420       .  A
C1575      C1576   1.401       .  A
C1575      C1579   1.510   1_554  S
C1576      H1580   1.084       .  S
C1577      H1587   1.111       .  S
C1577      H1588   1.110       .  S
C1577      H1589   1.110       .  S
C1579      H1590   1.111       .  S
C1579      H1591   1.110       .  S
C1579      H1592   1.109   1_556  S
C1593      C1594   1.400       .  A
C1593      C1598   1.398       .  A
C1593      H1603   1.084       .  S
C1594      C1599   1.481       .  S
C1594      C1595   1.413       .  A
C1595      C1596   1.406       .  A
C1595      C1600   1.506       .  S
C1596      C1597   1.403       .  A
C1596      H1601   1.084       .  S
C1597      C1598   1.415       .  A
C1598      C1602   1.509       .  S
C1599      C1604   1.411       .  A
C1599      C1608   1.401       .  A
C1600      H1616   1.110       .  S
C1600      H1617   1.110       .  S
C1600      H1618   1.111       .  S
C1602      H1613   1.109       .  S
C1602      H1614   1.110       .  S
C1602      H1615   1.108       .  S
C1604      C1605   1.400       .  A
C1604      C1609   1.509       .  S
C1605      C1606   1.406       .  A
C1605      H1610   1.083       .  S
C1606      C1607   1.419       .  A
C1607      C1608   1.406       .  A
C1607      C1611   1.507       .  S
C1608      H1612   1.084       .  S
C1609      H1619   1.111       .  S
C1609      H1620   1.110       .  S
C1609      H1621   1.110       .  S
C1611      H1622   1.111       .  S
C1611      H1623   1.109       .  S
C1611      H1624   1.111       .  S
C1625      C1626   1.399       .  A
C1625      C1630   1.405       .  A
C1625      H1635   1.084       .  S
C1626      C1631   1.480       .  S
C1626      C1627   1.407       .  A
C1627      C1628   1.401       .  A
C1627      C1632   1.507       .  S
C1628      C1629   1.410       .  A
C1628      H1633   1.082       .  S
C1629      C1630   1.424       .  A
C1630      C1634   1.508       .  S
C1631      C1636   1.409       .  A
C1631      C1640   1.402       .  A
C1632      H1648   1.110       .  S
C1632      H1649   1.110       .  S
C1632      H1650   1.111       .  S
C1634      H1645   1.110       .  S
C1634      H1646   1.111       .  S
C1634      H1647   1.110       .  S
C1636      C1637   1.399       .  A
C1636      C1641   1.508       .  S
C1637      C1638   1.405       .  A
C1637      H1642   1.084       .  S
C1638      C1639   1.418       .  A
C1639      C1640   1.406       .  A
C1639      C1643   1.507       .  S
C1640      H1644   1.084       .  S
C1641      H1651   1.111       .  S
C1641      H1652   1.110       .  S
C1641      H1653   1.110       .  S
C1643      H1654   1.110       .  S
C1643      H1655   1.106   1_556  S
C1643      H1656   1.111       .  S
C1657      C1658   1.404       .  A
C1657      C1662   1.408       .  A
C1657      H1667   1.084       .  S
C1658      C1663   1.489       .  S
C1658      C1659   1.413       .  A
C1659      C1660   1.405       .  A
C1659      C1664   1.507       .  S
C1660      C1661   1.402       .  A
C1660      H1665   1.085       .  S
C1661      C1662   1.416       .  A
C1662      C1666   1.507       .  S
C1663      C1668   1.411       .  A
C1663      C1672   1.399       .  A
C1664      H1680   1.110       .  S
C1664      H1681   1.109       .  S
C1664      H1682   1.110       .  S
C1666      H1677   1.110       .  S
C1666      H1678   1.111       .  S
C1666      H1679   1.108       .  S
C1668      C1669   1.412       .  A
C1668      C1673   1.505       .  S
C1669      C1670   1.410       .  A
C1669      H1674   1.083   1_556  S
C1670      C1671   1.421       .  A
C1671      C1672   1.403       .  A
C1671      C1675   1.509       .  S
C1672      H1676   1.085       .  S
C1673      H1683   1.111       .  S
C1673      H1684   1.111       .  S
C1673      H1685   1.109       .  S
C1675      H1686   1.109       .  S
C1675      H1687   1.109       .  S
C1675      H1688   1.111       .  S
C1689      C1690   1.401       .  A
C1689      C1694   1.409       .  A
C1689      H1699   1.083       .  S
C1690      C1695   1.477       .  S
C1690      C1691   1.407       .  A
C1691      C1692   1.395       .  A
C1691      C1696   1.509       .  S
C1692      C1693   1.409       .  A
C1692      H1697   1.084       .  S
C1693      C1694   1.422       .  A
C1694      C1698   1.507       .  S
C1695      C1700   1.408       .  A
C1695      C1704   1.400       .  A
C1696      H1712   1.110       .  S
C1696      H1713   1.110       .  S
C1696      H1714   1.111       .  S
C1698      H1709   1.111       .  S
C1698      H1710   1.111       .  S
C1698      H1711   1.110       .  S
C1700      C1701   1.403       .  A
C1700      C1705   1.506       .  S
C1701      C1702   1.407       .  A
C1701      H1706   1.084       .  S
C1702      C1703   1.419       .  A
C1703      C1704   1.402       .  A
C1703      C1707   1.510       .  S
C1704      H1708   1.084       .  S
C1705      H1715   1.111       .  S
C1705      H1716   1.110       .  S
C1705      H1717   1.110       .  S
C1707      H1718   1.111       .  S
C1707      H1719   1.110       .  S
C1707      H1720   1.109       .  S
C1721      C1722   1.399       .  A
C1721      C1726   1.405       .  A
C1721      H1731   1.085       .  S
C1722      C1727   1.482       .  S
C1722      C1723   1.408       .  A
C1723      C1724   1.403       .  A
C1723      C1728   1.507       .  S
C1724      C1725   1.410       .  A
C1724      H1729   1.083       .  S
C1725      C1726   1.424       .  A
C1726      C1730   1.509       .  S
C1727      C1732   1.408       .  A
C1727      C1736   1.400       .  A
C1728      H1744   1.110       .  S
C1728      H1745   1.110       .  S
C1728      H1746   1.111       .  S
C1730      H1741   1.110       .  S
C1730      H1742   1.111       .  S
C1730      H1743   1.110       .  S
C1732      C1733   1.404       .  A
C1732      C1737   1.506       .  S
C1733      C1734   1.410       .  A
C1733      H1738   1.083       .  S
C1734      C1735   1.423       .  A
C1735      C1736   1.405       .  A
C1735      C1739   1.509       .  S
C1736      H1740   1.085       .  S
C1737      H1747   1.110       .  S
C1737      H1748   1.110       .  S
C1737      H1749   1.110       .  S
C1739      H1750   1.110       .  S
C1739      H1751   1.110       .  S
C1739      H1752   1.111       .  S
C1753      C1754   1.402       .  A
C1753      C1758   1.401       .  A
C1753      H1763   1.084       .  S
C1754      C1759   1.486       .  S
C1754      C1755   1.414       .  A
C1755      C1756   1.407       .  A
C1755      C1760   1.507       .  S
C1756      C1757   1.403       .  A
C1756      H1761   1.084       .  S
C1757      C1758   1.416       .  A
C1758      C1762   1.510       .  S
C1759      C1764   1.415       .  A
C1759      C1768   1.402       .  A
C1760      H1776   1.109       .  S
C1760      H1777   1.110       .  S
C1760      H1778   1.111       .  S
C1762      H1773   1.111       .  S
C1762      H1774   1.111       .  S
C1762      H1775   1.108       .  S
C1764      C1765   1.407       .  A
C1764      C1769   1.507       .  S
C1765      C1766   1.403       .  A
C1765      H1770   1.084       .  S
C1766      C1767   1.414       .  A
C1767      C1768   1.399       .  A
C1767      C1771   1.509       .  S
C1768      H1772   1.085       .  S
C1769      H1779   1.111       .  S
C1769      H1780   1.109       .  S
C1769      H1781   1.110       .  S
C1771      H1782   1.110       .  S
C1771      H1783   1.107       .  S
C1771      H1784   1.111       .  S
C1785      C1786   1.402       .  A
C1785      C1790   1.409       .  A
C1785      H1795   1.084       .  S
C1786      C1791   1.482       .  S
C1786      C1787   1.410       .  A
C1787      C1788   1.400       .  A
C1787      C1792   1.509       .  S
C1788      C1789   1.406       .  A
C1788      H1793   1.085       .  S
C1789      C1790   1.418       .  A
C1790      C1794   1.507       .  S
C1791      C1796   1.408       .  A
C1791      C1800   1.399       .  A
C1792      H1808   1.110       .  S
C1792      H1809   1.109       .  S
C1792      H1810   1.111       .  S
C1794      H1805   1.111       .  S
C1794      H1806   1.109       .  S
C1794      H1807   1.111       .  S
C1796      C1797   1.405       .  A
C1796      C1801   1.507       .  S
C1797      C1798   1.411       .  A
C1797      H1802   1.083       .  S
C1798      C1799   1.424       .  A
C1799      C1800   1.404       .  A
C1799      C1803   1.510       .  S
C1800      H1804   1.085       .  S
C1801      H1811   1.111       .  S
C1801      H1812   1.110       .  S
C1801      H1813   1.109       .  S
C1803      H1814   1.111       .  S
C1803      H1815   1.110       .  S
C1803      H1816   1.109       .  S
C1817      C1818   1.402       .  A
C1817      C1822   1.408       .  A
C1817      H1827   1.083       .  S
C1818      C1823   1.486       .  S
C1818      C1819   1.410       .  A
C1819      C1820   1.404       .  A
C1819      C1824   1.507       .  S
C1820      C1821   1.405       .  A
C1820      H1825   1.084       .  S
C1821      C1822   1.420       .  A
C1822      C1826   1.508       .  S
C1823      C1828   1.410       .  A
C1823      C1832   1.400       .  A
C1824      H1840   1.110       .  S
C1824      H1841   1.110       .  S
C1824      H1842   1.111       .  S
C1826      H1837   1.111       .  S
C1826      H1838   1.110       .  S
C1826      H1839   1.105       .  S
C1828      C1829   1.405       .  A
C1828      C1833   1.506       .  S
C1829      C1830   1.407       .  A
C1829      H1834   1.084       .  S
C1830      C1831   1.423       .  A
C1831      C1832   1.408       .  A
C1831      C1835   1.509       .  S
C1832      H1836   1.083       .  S
C1833      H1843   1.111       .  S
C1833      H1844   1.110       .  S
C1833      H1845   1.110       .  S
C1835      H1846   1.110       .  S
C1835      H1847   1.111       .  S
C1835      H1848   1.111       .  S
C1849      C1850   1.401       .  A
C1849      C1854   1.406       .  A
C1849      H1859   1.084       .  S
C1850      C1855   1.480       .  S
C1850      C1851   1.410       .  A
C1851      C1852   1.400       .  A
C1851      C1856   1.509       .  S
C1852      C1853   1.405       .  A
C1852      H1857   1.085       .  S
C1853      C1854   1.419       .  A
C1854      C1858   1.508       .  S
C1855      C1860   1.406       .  A
C1855      C1864   1.400       .  A
C1856      H1872   1.110       .  S
C1856      H1873   1.109       .  S
C1856      H1874   1.111       .  S
C1858      H1869   1.110       .  S
C1858      H1870   1.111       .  S
C1858      H1871   1.105       .  S
C1860      C1861   1.402       .  A
C1860      C1865   1.507       .  S
C1861      C1862   1.411       .  A
C1861      H1866   1.084       .  S
C1862      C1863   1.424       .  A
C1863      C1864   1.407       .  A
C1863      C1867   1.509       .  S
C1864      H1868   1.084       .  S
C1865      H1875   1.111       .  S
C1865      H1876   1.110       .  S
C1865      H1877   1.109       .  S
C1867      H1878   1.111       .  S
C1867      H1879   1.110       .  S
C1867      H1880   1.111       .  S
C1881      C1882   1.400       .  A
C1881      C1886   1.408       .  A
C1881      H1891   1.084       .  S
C1882      C1887   1.478   1_556  S
C1882      C1883   1.408       .  A
C1883      C1884   1.398       .  A
C1883      C1888   1.509   1_556  S
C1884      C1885   1.408       .  A
C1884      H1889   1.084       .  S
C1885      C1886   1.421       .  A
C1886      C1890   1.507       .  S
C1887      C1892   1.407       .  A
C1887      C1896   1.401   1_554  A
C1888      H1904   1.110   1_554  S
C1888      H1905   1.110       .  S
C1888      H1906   1.111   1_554  S
C1890      H1901   1.111       .  S
C1890      H1902   1.110       .  S
C1890      H1903   1.110       .  S
C1892      C1893   1.401       .  A
C1892      C1897   1.507       .  S
C1893      C1894   1.408       .  A
C1893      H1898   1.084       .  S
C1894      C1895   1.419   1_554  A
C1895      C1896   1.404       .  A
C1895      C1899   1.508       .  S
C1896      H1900   1.085       .  S
C1897      H1907   1.111       .  S
C1897      H1908   1.110       .  S
C1897      H1909   1.110       .  S
C1899      H1910   1.111       .  S
C1899      H1911   1.107       .  S
C1899      H1912   1.110       .  S
C1913      C1914   1.399       .  A
C1913      C1918   1.400       .  A
C1913      H1923   1.084       .  S
C1914      C1919   1.478       .  S
C1914      C1915   1.409       .  A
C1915      C1916   1.405       .  A
C1915      C1920   1.506       .  S
C1916      C1917   1.406       .  A
C1916      H1921   1.084       .  S
C1917      C1918   1.419       .  A
C1918      C1922   1.509       .  S
C1919      C1924   1.408       .  A
C1919      C1928   1.400       .  A
C1920      H1936   1.110       .  S
C1920      H1937   1.110       .  S
C1920      H1938   1.111       .  S
C1922      H1933   1.111       .  S
C1922      H1934   1.111       .  S
C1922      H1935   1.107       .  S
C1924      C1925   1.398       .  A
C1924      C1929   1.508       .  S
C1925      C1926   1.408       .  A
C1925      H1930   1.084       .  S
C1926      C1927   1.421       .  A
C1927      C1928   1.408       .  A
C1927      C1931   1.507       .  S
C1928      H1932   1.084       .  S
C1929      H1939   1.111       .  S
C1929      H1940   1.110       .  S
C1929      H1941   1.110       .  S
C1931      H1942   1.109       .  S
C1931      H1943   1.111       .  S
C1931      H1944   1.111       .  S
C1945      C1946   1.399       .  A
C1945      C1950   1.402       .  A
C1945      H1955   1.085       .  S
C1946      C1951   1.485       .  S
C1946      C1947   1.411       .  A
C1947      C1948   1.407       .  A
C1947      C1952   1.507       .  S
C1948      C1949   1.409       .  A
C1948      H1953   1.084       .  S
C1949      C1950   1.423       .  A
C1950      C1954   1.509       .  S
C1951      C1956   1.411       .  A
C1951      C1960   1.401       .  A
C1952      H1968   1.109       .  S
C1952      H1969   1.110       .  S
C1952      H1970   1.111       .  S
C1954      H1965   1.111       .  S
C1954      H1966   1.109       .  S
C1954      H1967   1.111       .  S
C1956      C1957   1.404       .  A
C1956      C1961   1.507       .  S
C1957      C1958   1.407       .  A
C1957      H1962   1.084       .  S
C1958      C1959   1.421       .  A
C1959      C1960   1.404       .  A
C1959      C1963   1.508       .  S
C1960      H1964   1.084       .  S
C1961      H1971   1.111       .  S
C1961      H1972   1.109       .  S
C1961      H1973   1.110       .  S
C1963      H1974   1.111       .  S
C1963      H1975   1.107       .  S
C1963      H1976   1.110       .  S
C1977      C1978   1.399       .  A
C1977      C1982   1.408       .  A
C1977      H1987   1.083       .  S
C1978      C1983   1.480       .  S
C1978      C1979   1.408       .  A
C1979      C1980   1.401       .  A
C1979      C1984   1.509       .  S
C1980      C1981   1.410       .  A
C1980      H1985   1.083       .  S
C1981      C1982   1.425       .  A
C1982      C1986   1.508       .  S
C1983      C1988   1.411       .  A
C1983      C1992   1.400       .  A
C1984      H2000   1.110       .  S
C1984      H2001   1.109       .  S
C1984      H2002   1.111       .  S
C1986      H1997   1.111       .  S
C1986      H1998   1.110       .  S
C1986      H1999   1.110       .  S
C1988      C1989   1.406       .  A
C1988      C1993   1.506       .  S
C1989      C1990   1.405       .  A
C1989      H1994   1.084       .  S
C1990      C1991   1.415       .  A
C1991      C1992   1.400       .  A
C1991      C1995   1.507       .  S
C1992      H1996   1.085       .  S
C1993      H2003   1.111       .  S
C1993      H2004   1.110       .  S
C1993      H2005   1.109       .  S
C1995      H2006   1.110       .  S
C1995      H2007   1.107       .  S
C1995      H2008   1.110       .  S
C2009      C2010   1.404       .  A
C2009      C2014   1.405       .  A
C2009      H2019   1.084       .  S
C2010      C2015   1.482       .  S
C2010      C2011   1.410       .  A
C2011      C2012   1.402       .  A
C2011      C2016   1.507       .  S
C2012      C2013   1.403       .  A
C2012      H2017   1.082       .  S
C2013      C2014   1.414       .  A
C2014      C2018   1.507       .  S
C2015      C2020   1.406       .  A
C2015      C2024   1.402       .  A
C2016      H2032   1.110       .  S
C2016      H2033   1.111       .  S
C2016      H2034   1.111       .  S
C2018      H2029   1.110   1_556  S
C2018      H2030   1.110       .  S
C2018      H2031   1.108       .  S
C2020      C2021   1.399       .  A
C2020      C2025   1.508       .  S
C2021      C2022   1.411       .  A
C2021      H2026   1.084       .  S
C2022      C2023   1.423       .  A
C2023      C2024   1.410       .  A
C2023      C2027   1.507       .  S
C2024      H2028   1.084       .  S
C2025      H2035   1.111       .  S
C2025      H2036   1.110       .  S
C2025      H2037   1.110       .  S
C2027      H2038   1.111       .  S
C2027      H2039   1.110       .  S
C2027      H2040   1.110       .  S
C2041      C2042   1.400       .  A
C2041      C2046   1.406       .  A
C2041      H2051   1.084       .  S
C2042      C2047   1.483       .  S
C2042      C2043   1.408       .  A
C2043      C2044   1.402       .  A
C2043      C2048   1.507       .  S
C2044      C2045   1.408       .  A
C2044      H2049   1.085       .  S
C2045      C2046   1.424       .  A
C2046      C2050   1.510       .  S
C2047      C2052   1.409       .  A
C2047      C2056   1.401       .  A
C2048      H2064   1.110       .  S
C2048      H2065   1.110       .  S
C2048      H2066   1.111       .  S
C2050      H2061   1.111       .  S
C2050      H2062   1.110       .  S
C2050      H2063   1.101       .  S
C2052      C2053   1.399       .  A
C2052      C2057   1.509       .  S
C2053      C2054   1.408       .  A
C2053      H2058   1.084       .  S
C2054      C2055   1.423       .  A
C2055      C2056   1.410       .  A
C2055      C2059   1.507       .  S
C2056      H2060   1.084       .  S
C2057      H2067   1.111       .  S
C2057      H2068   1.110       .  S
C2057      H2069   1.110       .  S
C2059      H2070   1.110       .  S
C2059      H2071   1.110       .  S
C2059      H2072   1.111       .  S
C2073      C2074   1.400       .  A
C2073      C2078   1.404       .  A
C2073      H2083   1.084       .  S
C2074      C2079   1.481       .  S
C2074      C2075   1.410       .  A
C2075      C2076   1.402       .  A
C2075      C2080   1.507       .  S
C2076      C2077   1.407       .  A
C2076      H2081   1.084       .  S
C2077      C2078   1.420       .  A
C2078      C2082   1.507       .  S
C2079      C2084   1.409       .  A
C2079      C2088   1.401       .  A
C2080      H2096   1.110       .  S
C2080      H2097   1.110       .  S
C2080      H2098   1.111       .  S
C2082      H2093   1.109       .  S
C2082      H2094   1.111       .  S
C2082      H2095   1.108       .  S
C2084      C2085   1.400       .  A
C2084      C2089   1.508       .  S
C2085      C2086   1.408       .  A
C2085      H2090   1.084       .  S
C2086      C2087   1.421       .  A
C2087      C2088   1.406       .  A
C2087      C2091   1.507       .  S
C2088      H2092   1.083       .  S
C2089      H2099   1.111       .  S
C2089      H2100   1.110       .  S
C2089      H2101   1.110       .  S
C2091      H2102   1.111       .  S
C2091      H2103   1.110       .  S
C2091      H2104   1.111       .  S
C2105      C2106   1.402       .  A
C2105      C2110   1.407       .  A
C2105      H2115   1.084       .  S
C2106      C2111   1.481       .  S
C2106      C2107   1.410       .  A
C2107      C2108   1.402       .  A
C2107      C2112   1.508       .  S
C2108      C2109   1.406       .  A
C2108      H2113   1.084       .  S
C2109      C2110   1.417       .  A
C2110      C2114   1.507       .  S
C2111      C2116   1.410       .  A
C2111      C2120   1.399       .  A
C2112      H2128   1.110       .  S
C2112      H2129   1.108       .  S
C2112      H2130   1.111       .  S
C2114      H2125   1.111       .  S
C2114      H2126   1.110   1_554  S
C2114      H2127   1.110       .  S
C2116      C2117   1.403       .  A
C2116      C2121   1.508       .  S
C2117      C2118   1.408       .  A
C2117      H2122   1.084       .  S
C2118      C2119   1.422       .  A
C2119      C2120   1.404       .  A
C2119      C2123   1.508       .  S
C2120      H2124   1.084       .  S
C2121      H2131   1.111       .  S
C2121      H2132   1.110       .  S
C2121      H2133   1.108       .  S
C2123      H2134   1.111       .  S
C2123      H2135   1.105       .  S
C2123      H2136   1.109       .  S
C2137      C2138   1.403       .  A
C2137      C2142   1.410       .  A
C2137      H2147   1.084       .  S
C2138      C2143   1.486       .  S
C2138      C2139   1.409       .  A
C2139      C2140   1.400       .  A
C2139      C2144   1.508       .  S
C2140      C2141   1.408       .  A
C2140      H2145   1.084       .  S
C2141      C2142   1.422       .  A
C2142      C2146   1.508       .  S
C2143      C2148   1.407       .  A
C2143      C2152   1.402       .  A
C2144      H2160   1.110       .  S
C2144      H2161   1.110       .  S
C2144      H2162   1.111       .  S
C2146      H2157   1.110       .  S
C2146      H2158   1.111       .  S
C2146      H2159   1.104       .  S
C2148      C2149   1.403       .  A
C2148      C2153   1.507       .  S
C2149      C2150   1.411       .  A
C2149      H2154   1.083       .  S
C2150      C2151   1.423       .  A
C2151      C2152   1.410       .  A
C2151      C2155   1.508       .  S
C2152      H2156   1.084       .  S
C2153      H2163   1.111       .  S
C2153      H2164   1.110       .  S
C2153      H2165   1.110       .  S
C2155      H2166   1.111       .  S
C2155      H2167   1.111       .  S
C2155      H2168   1.110       .  S
C2169      C2170   1.400       .  A
C2169      C2174   1.408       .  A
C2169      H2179   1.084       .  S
C2170      C2175   1.486   1_556  S
C2170      C2171   1.410       .  A
C2171      C2172   1.405       .  A
C2171      C2176   1.507       .  S
C2172      C2173   1.408       .  A
C2172      H2177   1.084       .  S
C2173      C2174   1.421       .  A
C2174      C2178   1.503       .  S
C2175      C2180   1.409       .  A
C2175      C2184   1.401       .  A
C2176      H2192   1.110   1_556  S
C2176      H2193   1.110       .  S
C2176      H2194   1.111       .  S
C2178      H2189   1.110       .  S
C2178      H2190   1.111       .  S
C2178      H2191   1.108       .  S
C2180      C2181   1.405       .  A
C2180      C2185   1.506   1_554  S
C2181      C2182   1.408       .  A
C2181      H2186   1.084       .  S
C2182      C2183   1.420       .  A
C2183      C2184   1.406       .  A
C2183      C2187   1.508       .  S
C2184      H2188   1.085       .  S
C2185      H2195   1.111   1_556  S
C2185      H2196   1.110       .  S
C2185      H2197   1.110       .  S
C2187      H2198   1.111       .  S
C2187      H2199   1.111       .  S
C2187      H2200   1.109       .  S
C2201      C2202   1.401       .  A
C2201      C2206   1.405       .  A
C2201      H2211   1.084       .  S
C2202      C2207   1.477       .  S
C2202      C2203   1.409       .  A
C2203      C2204   1.400       .  A
C2203      C2208   1.508       .  S
C2204      C2205   1.405       .  A
C2204      H2209   1.084       .  S
C2205      C2206   1.418       .  A
C2206      C2210   1.508       .  S
C2207      C2212   1.408       .  A
C2207      C2216   1.398       .  A
C2208      H2224   1.110       .  S
C2208      H2225   1.110       .  S
C2208      H2226   1.111       .  S
C2210      H2221   1.110       .  S
C2210      H2222   1.111       .  S
C2210      H2223   1.105       .  S
C2212      C2213   1.404       .  A
C2212      C2217   1.506       .  S
C2213      C2214   1.408       .  A
C2213      H2218   1.084       .  S
C2214      C2215   1.420       .  A
C2215      C2216   1.401       .  A
C2215      C2219   1.510       .  S
C2216      H2220   1.084       .  S
C2217      H2227   1.111       .  S
C2217      H2228   1.110       .  S
C2217      H2229   1.110       .  S
C2219      H2230   1.109       .  S
C2219      H2231   1.111       .  S
C2219      H2232   1.111       .  S
C2233      C2234   1.399       .  A
C2233      C2238   1.403       .  A
C2233      H2243   1.084       .  S
C2234      C2239   1.487       .  S
C2234      C2235   1.413       .  A
C2235      C2236   1.410       .  A
C2235      C2240   1.505       .  S
C2236      C2237   1.406       .  A
C2236      H2241   1.084       .  S
C2237      C2238   1.420       .  A
C2238      C2242   1.510       .  S
C2239      C2244   1.413       .  A
C2239      C2248   1.399       .  A
C2240      H2256   1.110       .  S
C2240      H2257   1.111       .  S
C2240      H2258   1.111       .  S
C2242      H2253   1.111       .  S
C2242      H2254   1.109       .  S
C2242      H2255   1.110       .  S
C2244      C2245   1.411       .  A
C2244      C2249   1.505       .  S
C2245      C2246   1.405       .  A
C2245      H2250   1.084       .  S
C2246      C2247   1.418       .  A
C2247      C2248   1.402       .  A
C2247      C2251   1.509       .  S
C2248      H2252   1.085       .  S
C2249      H2259   1.111       .  S
C2249      H2260   1.110       .  S
C2249      H2261   1.110       .  S
C2251      H2262   1.108       .  S
C2251      H2263   1.110       .  S
C2251      H2264   1.111       .  S
C2265      C2266   1.399       .  A
C2265      C2270   1.399       .  A
C2265      H2275   1.085       .  S
C2266      C2271   1.478       .  S
C2266      C2267   1.409       .  A
C2267      C2268   1.407       .  A
C2267      C2272   1.505       .  S
C2268      C2269   1.407       .  A
C2268      H2273   1.083       .  S
C2269      C2270   1.417       .  A
C2270      C2274   1.509       .  S
C2271      C2276   1.412       .  A
C2271      C2280   1.401       .  A
C2272      H2288   1.110       .  S
C2272      H2289   1.109       .  S
C2272      H2290   1.111       .  S
C2274      H2285   1.109       .  S
C2274      H2286   1.111       .  S
C2274      H2287   1.111       .  S
C2276      C2277   1.404   1_554  A
C2276      C2281   1.506       .  S
C2277      C2278   1.401       .  A
C2277      H2282   1.084       .  S
C2278      C2279   1.413   1_556  A
C2279      C2280   1.401       .  A
C2279      C2283   1.507       .  S
C2280      H2284   1.084       .  S
C2281      H2291   1.111   1_554  S
C2281      H2292   1.110       .  S
C2281      H2293   1.109       .  S
C2283      H2294   1.110       .  S
C2283      H2295   1.108       .  S
C2283      H2296   1.110       .  S
C2297      C2298   1.402       .  A
C2297      C2302   1.404       .  A
C2297      H2307   1.084       .  S
C2298      C2303   1.483       .  S
C2298      C2299   1.411       .  A
C2299      C2300   1.404       .  A
C2299      C2304   1.506       .  S
C2300      C2301   1.404       .  A
C2300      H2305   1.085       .  S
C2301      C2302   1.416       .  A
C2302      C2306   1.508       .  S
C2303      C2308   1.408       .  A
C2303      C2312   1.401       .  A
C2304      H2320   1.110       .  S
C2304      H2321   1.110       .  S
C2304      H2322   1.111       .  S
C2306      H2317   1.110       .  S
C2306      H2318   1.111       .  S
C2306      H2319   1.108       .  S
C2308      C2309   1.402       .  A
C2308      C2313   1.508       .  S
C2309      C2310   1.410       .  A
C2309      H2314   1.083       .  S
C2310      C2311   1.422       .  A
C2311      C2312   1.410       .  A
C2311      C2315   1.506       .  S
C2312      H2316   1.084       .  S
C2313      H2323   1.111       .  S
C2313      H2324   1.110       .  S
C2313      H2325   1.110       .  S
C2315      H2326   1.109       .  S
C2315      H2327   1.110       .  S
C2315      H2328   1.111       .  S
C2329      C2330   1.398       .  A
C2329      C2334   1.404       .  A
C2329      H2339   1.084       .  S
C2330      C2335   1.484   1_556  S
C2330      C2331   1.410       .  A
C2331      C2332   1.408       .  A
C2331      C2336   1.506       .  S
C2332      C2333   1.409       .  A
C2332      H2337   1.084       .  S
C2333      C2334   1.424       .  A
C2334      C2338   1.510       .  S
C2335      C2340   1.410       .  A
C2335      C2344   1.402       .  A
C2336      H2352   1.110   1_556  S
C2336      H2353   1.110       .  S
C2336      H2354   1.111       .  S
C2338      H2349   1.111       .  S
C2338      H2350   1.110       .  S
C2338      H2351   1.111       .  S
C2340      C2341   1.403       .  A
C2340      C2345   1.507       .  S
C2341      C2342   1.406       .  A
C2341      H2346   1.085       .  S
C2342      C2343   1.418       .  A
C2343      C2344   1.406       .  A
C2343      C2347   1.508       .  S
C2344      H2348   1.085       .  S
C2345      H2355   1.111       .  S
C2345      H2356   1.110   1_554  S
C2345      H2357   1.110   1_554  S
C2347      H2358   1.111       .  S
C2347      H2359   1.106       .  S
C2347      H2360   1.110       .  S
C2361      C2362   1.403       .  A
C2361      C2366   1.402       .  A
C2361      H2371   1.085       .  S
C2362      C2367   1.488   1_655  S
C2362      C2363   1.412       .  A
C2363      C2364   1.406       .  A
C2363      C2368   1.506       .  S
C2364      C2365   1.406       .  A
C2364      H2369   1.083       .  S
C2365      C2366   1.417       .  A
C2366      C2370   1.508       .  S
C2367      C2372   1.413       .  A
C2367      C2376   1.404       .  A
C2368      H2384   1.109       .  S
C2368      H2385   1.110       .  S
C2368      H2386   1.111       .  S
C2370      H2381   1.110       .  S
C2370      H2382   1.111       .  S
C2370      H2383   1.106       .  S
C2372      C2373   1.403       .  A
C2372      C2377   1.508       .  S
C2373      C2374   1.404       .  A
C2373      H2378   1.086       .  S
C2374      C2375   1.418       .  A
C2375      C2376   1.407       .  A
C2375      C2379   1.507       .  S
C2376      H2380   1.083       .  S
C2377      H2387   1.111       .  S
C2377      H2388   1.109   1_455  S
C2377      H2389   1.110   1_455  S
C2379      H2390   1.110       .  S
C2379      H2391   1.105       .  S
C2379      H2392   1.111       .  S
C2393      C2394   1.401       .  A
C2393      C2398   1.403       .  A
C2393      H2403   1.085       .  S
C2394      C2399   1.484       .  S
C2394      C2395   1.410       .  A
C2395      C2396   1.404       .  A
C2395      C2400   1.506       .  S
C2396      C2397   1.407       .  A
C2396      H2401   1.084       .  S
C2397      C2398   1.420       .  A
C2398      C2402   1.510       .  S
C2399      C2404   1.409       .  A
C2399      C2408   1.399       .  A
C2400      H2416   1.110       .  S
C2400      H2417   1.110       .  S
C2400      H2418   1.111       .  S
C2402      H2413   1.111       .  S
C2402      H2414   1.110       .  S
C2402      H2415   1.106       .  S
C2404      C2405   1.405       .  A
C2404      C2409   1.506       .  S
C2405      C2406   1.409       .  A
C2405      H2410   1.083       .  S
C2406      C2407   1.423       .  A
C2407      C2408   1.405       .  A
C2407      C2411   1.509       .  S
C2408      H2412   1.084       .  S
C2409      H2419   1.111       .  S
C2409      H2420   1.109       .  S
C2409      H2421   1.111       .  S
C2411      H2422   1.111       .  S
C2411      H2423   1.110       .  S
C2411      H2424   1.110       .  S
C2425      C2426   1.399   1_455  A
C2425      C2430   1.400       .  A
C2425      H2435   1.085       .  S
C2426      C2431   1.475       .  S
C2426      C2427   1.410       .  A
C2427      C2428   1.402   1_655  A
C2427      C2432   1.507       .  S
C2428      C2429   1.407       .  A
C2428      H2433   1.085       .  S
C2429      C2430   1.417       .  A
C2430      C2434   1.508       .  S
C2431      C2436   1.409       .  A
C2431      C2440   1.397       .  A
C2432      H2448   1.110       .  S
C2432      H2449   1.110       .  S
C2432      H2450   1.111       .  S
C2434      H2445   1.111       .  S
C2434      H2446   1.110       .  S
C2434      H2447   1.107       .  S
C2436      C2437   1.405       .  A
C2436      C2441   1.505       .  S
C2437      C2438   1.405       .  A
C2437      H2442   1.084       .  S
C2438      C2439   1.420       .  A
C2439      C2440   1.397       .  A
C2439      C2443   1.511       .  S
C2440      H2444   1.085       .  S
C2441      H2451   1.111       .  S
C2441      H2452   1.110       .  S
C2441      H2453   1.110       .  S
C2443      H2454   1.111       .  S
C2443      H2455   1.110       .  S
C2443      H2456   1.109       .  S
C2457      C2458   1.400       .  A
C2457      C2462   1.406   1_655  A
C2457      H2467   1.084       .  S
C2458      C2463   1.482       .  S
C2458      C2459   1.409       .  A
C2459      C2460   1.403   1_655  A
C2459      C2464   1.507       .  S
C2460      C2461   1.407       .  A
C2460      H2465   1.084       .  S
C2461      C2462   1.422       .  A
C2462      C2466   1.508       .  S
C2463      C2468   1.411       .  A
C2463      C2472   1.402       .  A
C2464      H2480   1.110       .  S
C2464      H2481   1.110       .  S
C2464      H2482   1.111       .  S
C2466      H2477   1.110       .  S
C2466      H2478   1.111       .  S
C2466      H2479   1.105       .  S
C2468      C2469   1.401       .  A
C2468      C2473   1.508       .  S
C2469      C2470   1.402       .  A
C2469      H2474   1.083       .  S
C2470      C2471   1.416       .  A
C2471      C2472   1.406       .  A
C2471      C2475   1.507       .  S
C2472      H2476   1.084       .  S
C2473      H2483   1.111       .  S
C2473      H2484   1.110       .  S
C2473      H2485   1.110       .  S
C2475      H2486   1.110       .  S
C2475      H2487   1.107       .  S
C2475      H2488   1.111       .  S
C2489      C2490   1.400       .  A
C2489      C2494   1.402       .  A
C2489      H2499   1.084       .  S
C2490      C2495   1.486       .  S
C2490      C2491   1.410       .  A
C2491      C2492   1.409       .  A
C2491      C2496   1.505       .  S
C2492      C2493   1.408       .  A
C2492      H2497   1.085       .  S
C2493      C2494   1.419       .  A
C2494      C2498   1.506       .  S
C2495      C2500   1.411       .  A
C2495      C2504   1.403       .  A
C2496      H2512   1.110       .  S
C2496      H2513   1.110       .  S
C2496      H2514   1.111       .  S
C2498      H2509   1.110       .  S
C2498      H2510   1.111       .  S
C2498      H2511   1.102       .  S
C2500      C2501   1.404       .  A
C2500      C2505   1.506       .  S
C2501      C2502   1.403       .  A
C2501      H2506   1.085       .  S
C2502      C2503   1.417       .  A
C2503      C2504   1.407       .  A
C2503      C2507   1.507       .  S
C2504      H2508   1.083       .  S
C2505      H2515   1.111       .  S
C2505      H2516   1.110       .  S
C2505      H2517   1.110       .  S
C2507      H2518   1.110       .  S
C2507      H2519   1.107       .  S
C2507      H2520   1.110       .  S
C2521      C2522   1.401       .  A
C2521      C2526   1.408       .  A
C2521      H2531   1.083       .  S
C2522      C2527   1.487       .  S
C2522      C2523   1.408       .  A
C2523      C2524   1.405       .  A
C2523      C2528   1.506       .  S
C2524      C2525   1.412       .  A
C2524      H2529   1.084       .  S
C2525      C2526   1.423       .  A
C2526      C2530   1.508       .  S
C2527      C2532   1.409       .  A
C2527      C2536   1.400       .  A
C2528      H2544   1.110       .  S
C2528      H2545   1.110       .  S
C2528      H2546   1.111       .  S
C2530      H2541   1.110       .  S
C2530      H2542   1.110       .  S
C2530      H2543   1.111       .  S
C2532      C2533   1.407       .  A
C2532      C2537   1.506       .  S
C2533      C2534   1.410       .  A
C2533      H2538   1.082       .  S
C2534      C2535   1.425       .  A
C2535      C2536   1.406       .  A
C2535      C2539   1.511       .  S
C2536      H2540   1.085       .  S
C2537      H2547   1.110       .  S
C2537      H2548   1.110       .  S
C2537      H2549   1.111       .  S
C2539      H2550   1.111       .  S
C2539      H2551   1.109       .  S
C2539      H2552   1.111       .  S
C2553      C2554   1.402       .  A
C2553      C2558   1.405       .  A
C2553      H2563   1.085       .  S
C2554      C2559   1.485       .  S
C2554      C2555   1.409       .  A
C2555      C2556   1.405       .  A
C2555      C2560   1.506       .  S
C2556      C2557   1.407       .  A
C2556      H2561   1.084       .  S
C2557      C2558   1.421       .  A
C2558      C2562   1.510       .  S
C2559      C2564   1.411       .  A
C2559      C2568   1.404       .  A
C2560      H2576   1.110       .  S
C2560      H2577   1.110       .  S
C2560      H2578   1.111       .  S
C2562      H2573   1.111       .  S
C2562      H2574   1.110       .  S
C2562      H2575   1.103       .  S
C2564      C2565   1.398       .  A
C2564      C2569   1.509       .  S
C2565      C2566   1.403       .  A
C2565      H2570   1.085       .  S
C2566      C2567   1.418       .  A
C2567      C2568   1.411       .  A
C2567      C2571   1.506       .  S
C2568      H2572   1.085       .  S
C2569      H2579   1.111       .  S
C2569      H2580   1.109       .  S
C2569      H2581   1.110       .  S
C2571      H2582   1.111       .  S
C2571      H2583   1.107       .  S
C2571      H2584   1.110       .  S
C2585      C2586   1.401       .  A
C2585      C2590   1.404       .  A
C2585      H2595   1.084       .  S
C2586      C2591   1.480       .  S
C2586      C2587   1.411       .  A
C2587      C2588   1.402       .  A
C2587      C2592   1.507       .  S
C2588      C2589   1.402       .  A
C2588      H2593   1.084       .  S
C2589      C2590   1.416       .  A
C2590      C2594   1.508       .  S
C2591      C2596   1.409       .  A
C2591      C2600   1.400       .  A
C2592      H2608   1.110       .  S
C2592      H2609   1.110       .  S
C2592      H2610   1.111       .  S
C2594      H2605   1.111       .  S
C2594      H2606   1.110       .  S
C2594      H2607   1.107       .  S
C2596      C2597   1.401       .  A
C2596      C2601   1.507       .  S
C2597      C2598   1.407       .  A
C2597      H2602   1.084       .  S
C2598      C2599   1.421       .  A
C2599      C2600   1.405       .  A
C2599      C2603   1.508       .  S
C2600      H2604   1.084       .  S
C2601      H2611   1.111       .  S
C2601      H2612   1.110       .  S
C2601      H2613   1.110       .  S
C2603      H2614   1.111       .  S
C2603      H2615   1.107       .  S
C2603      H2616   1.110       .  S
C2617      C2618   1.398       .  A
C2617      C2622   1.402       .  A
C2617      H2627   1.085       .  S
C2618      C2623   1.480       .  S
C2618      C2619   1.409       .  A
C2619      C2620   1.405       .  A
C2619      C2624   1.506       .  S
C2620      C2621   1.408       .  A
C2620      H2625   1.083       .  S
C2621      C2622   1.422       .  A
C2622      C2626   1.510       .  S
C2623      C2628   1.408       .  A
C2623      C2632   1.401       .  A
C2624      H2640   1.110       .  S
C2624      H2641   1.109       .  S
C2624      H2642   1.111       .  S
C2626      H2637   1.111       .  S
C2626      H2638   1.110       .  S
C2626      H2639   1.111       .  S
C2628      C2629   1.400       .  A
C2628      C2633   1.509       .  S
C2629      C2630   1.409       .  A
C2629      H2634   1.085       .  S
C2630      C2631   1.421       .  A
C2631      C2632   1.408       .  A
C2631      C2635   1.507       .  S
C2632      H2636   1.084       .  S
C2633      H2643   1.111       .  S
C2633      H2644   1.110       .  S
C2633      H2645   1.109       .  S
C2635      H2646   1.111       .  S
C2635      H2647   1.110       .  S
C2635      H2648   1.111       .  S
C2649      C2650   1.399       .  A
C2649      C2654   1.400       .  A
C2649      H2659   1.084       .  S
C2650      C2655   1.477       .  S
C2650      C2651   1.409       .  A
C2651      C2652   1.402       .  A
C2651      C2656   1.507       .  S
C2652      C2653   1.408       .  A
C2652      H2657   1.084       .  S
C2653      C2654   1.418       .  A
C2654      C2658   1.508       .  S
C2655      C2660   1.409       .  A
C2655      C2664   1.398       .  A
C2656      H2672   1.109       .  S
C2656      H2673   1.110       .  S
C2656      H2674   1.111       .  S
C2658      H2669   1.110       .  S
C2658      H2670   1.111       .  S
C2658      H2671   1.109       .  S
C2660      C2661   1.402       .  A
C2660      C2665   1.507       .  S
C2661      C2662   1.408       .  A
C2661      H2666   1.082       .  S
C2662      C2663   1.424       .  A
C2663      C2664   1.400       .  A
C2663      C2667   1.510       .  S
C2664      H2668   1.084       .  S
C2665      H2675   1.111       .  S
C2665      H2676   1.109       .  S
C2665      H2677   1.110       .  S
C2667      H2678   1.109       .  S
C2667      H2679   1.111       .  S
C2667      H2680   1.111       .  S
C2681      C2682   1.401       .  A
C2681      C2686   1.405       .  A
C2681      H2691   1.085       .  S
C2682      C2687   1.478       .  S
C2682      C2683   1.410       .  A
C2683      C2684   1.400       .  A
C2683      C2688   1.508       .  S
C2684      C2685   1.405       .  A
C2684      H2689   1.084       .  S
C2685      C2686   1.417       .  A
C2686      C2690   1.508       .  S
C2687      C2692   1.407       .  A
C2687      C2696   1.396       .  A
C2688      H2704   1.110       .  S
C2688      H2705   1.109       .  S
C2688      H2706   1.111       .  S
C2690      H2701   1.111       .  S
C2690      H2702   1.111       .  S
C2690      H2703   1.110       .  S
C2692      C2693   1.406       .  A
C2692      C2697   1.506       .  S
C2693      C2694   1.410       .  A
C2693      H2698   1.084       .  S
C2694      C2695   1.426       .  A
C2695      C2696   1.401       .  A
C2695      C2699   1.507       .  S
C2696      H2700   1.085       .  S
C2697      H2707   1.111       .  S
C2697      H2708   1.110       .  S
C2697      H2709   1.109       .  S
C2699      H2710   1.111       .  S
C2699      H2711   1.110       .  S
C2699      H2712   1.110       .  S
C2713      C2714   1.400   1_656  A
C2713      C2718   1.409       .  A
C2713      H2723   1.084   1_655  S
C2714      C2719   1.487       .  S
C2714      C2715   1.409   1_455  A
C2715      C2716   1.404       .  A
C2715      C2720   1.507   1_655  S
C2716      C2717   1.410   1_554  A
C2716      H2721   1.083       .  S
C2717      C2718   1.424       .  A
C2718      C2722   1.508       .  S
C2719      C2724   1.410   1_554  A
C2719      C2728   1.399       .  A
C2720      H2736   1.110       .  S
C2720      H2737   1.110       .  S
C2720      H2738   1.111   1_455  S
C2722      H2733   1.111       .  S
C2722      H2734   1.111       .  S
C2722      H2735   1.109       .  S
C2724      C2725   1.406       .  A
C2724      C2729   1.507       .  S
C2725      C2726   1.410   1_556  A
C2725      H2730   1.084       .  S
C2726      C2727   1.425       .  A
C2727      C2728   1.408       .  A
C2727      C2731   1.508       .  S
C2728      H2732   1.084       .  S
C2729      H2739   1.111       .  S
C2729      H2740   1.110       .  S
C2729      H2741   1.110       .  S
C2731      H2742   1.111       .  S
C2731      H2743   1.110       .  S
C2731      H2744   1.111       .  S
C2745      C2746   1.400       .  A
C2745      C2750   1.405       .  A
C2745      H2755   1.084       .  S
C2746      C2751   1.479       .  S
C2746      C2747   1.410       .  A
C2747      C2748   1.400       .  A
C2747      C2752   1.508       .  S
C2748      C2749   1.405       .  A
C2748      H2753   1.085       .  S
C2749      C2750   1.420       .  A
C2750      C2754   1.508       .  S
C2751      C2756   1.412       .  A
C2751      C2760   1.399       .  A
C2752      H2768   1.110       .  S
C2752      H2769   1.110       .  S
C2752      H2770   1.111       .  S
C2754      H2765   1.110       .  S
C2754      H2766   1.111       .  S
C2754      H2767   1.105       .  S
C2756      C2757   1.405       .  A
C2756      C2761   1.505       .  S
C2757      C2758   1.402       .  A
C2757      H2762   1.084       .  S
C2758      C2759   1.417       .  A
C2759      C2760   1.400       .  A
C2759      C2763   1.510       .  S
C2760      H2764   1.084       .  S
C2761      H2771   1.111   1_554  S
C2761      H2772   1.110       .  S
C2761      H2773   1.110       .  S
C2763      H2774   1.111       .  S
C2763      H2775   1.110       .  S
C2763      H2776   1.109       .  S
C2777      C2778   1.399       .  A
C2777      C2782   1.405       .  A
C2777      H2787   1.084       .  S
C2778      C2783   1.483       .  S
C2778      C2779   1.408       .  A
C2779      C2780   1.405       .  A
C2779      C2784   1.506       .  S
C2780      C2781   1.409       .  A
C2780      H2785   1.084       .  S
C2781      C2782   1.424       .  A
C2782      C2786   1.509       .  S
C2783      C2788   1.409       .  A
C2783      C2792   1.401       .  A
C2784      H2800   1.110       .  S
C2784      H2801   1.110       .  S
C2784      H2802   1.111       .  S
C2786      H2797   1.111       .  S
C2786      H2798   1.110       .  S
C2786      H2799   1.110       .  S
C2788      C2789   1.401       .  A
C2788      C2793   1.508       .  S
C2789      C2790   1.407       .  A
C2789      H2794   1.084       .  S
C2790      C2791   1.422       .  A
C2791      C2792   1.407       .  A
C2791      C2795   1.509       .  S
C2792      H2796   1.084       .  S
C2793      H2803   1.111       .  S
C2793      H2804   1.110       .  S
C2793      H2805   1.110       .  S
C2795      H2806   1.111       .  S
C2795      H2807   1.103       .  S
C2795      H2808   1.111       .  S
C2809      C2810   1.400       .  A
C2809      C2814   1.405       .  A
C2809      H2819   1.084       .  S
C2810      C2815   1.479       .  S
C2810      C2811   1.406       .  A
C2811      C2812   1.402       .  A
C2811      C2816   1.506       .  S
C2812      C2813   1.410       .  A
C2812      H2817   1.084       .  S
C2813      C2814   1.422       .  A
C2814      C2818   1.509       .  S
C2815      C2820   1.408       .  A
C2815      C2824   1.400       .  A
C2816      H2832   1.110       .  S
C2816      H2833   1.110       .  S
C2816      H2834   1.111       .  S
C2818      H2829   1.110       .  S
C2818      H2830   1.111       .  S
C2818      H2831   1.111       .  S
C2820      C2821   1.400       .  A
C2820      C2825   1.507       .  S
C2821      C2822   1.407       .  A
C2821      H2826   1.085       .  S
C2822      C2823   1.421       .  A
C2823      C2824   1.405       .  A
C2823      C2827   1.507       .  S
C2824      H2828   1.084       .  S
C2825      H2835   1.111       .  S
C2825      H2836   1.110       .  S
C2825      H2837   1.110       .  S
C2827      H2838   1.111       .  S
C2827      H2839   1.101       .  S
C2827      H2840   1.110       .  S
C2841      C2842   1.400       .  A
C2841      C2846   1.407       .  A
C2841      H2851   1.084       .  S
C2842      C2847   1.478       .  S
C2842      C2843   1.408       .  A
C2843      C2844   1.398       .  A
C2843      C2848   1.508       .  S
C2844      C2845   1.409       .  A
C2844      H2849   1.084       .  S
C2845      C2846   1.421       .  A
C2846      C2850   1.507       .  S
C2847      C2852   1.408       .  A
C2847      C2856   1.399       .  A
C2848      H2864   1.110       .  S
C2848      H2865   1.109       .  S
C2848      H2866   1.111       .  S
C2850      H2861   1.111       .  S
C2850      H2862   1.110       .  S
C2850      H2863   1.110       .  S
C2852      C2853   1.405       .  A
C2852      C2857   1.506       .  S
C2853      C2854   1.407       .  A
C2853      H2858   1.084       .  S
C2854      C2855   1.421       .  A
C2855      C2856   1.402       .  A
C2855      C2859   1.511       .  S
C2856      H2860   1.084       .  S
C2857      H2867   1.111       .  S
C2857      H2868   1.110       .  S
C2857      H2869   1.110       .  S
C2859      H2870   1.111       .  S
C2859      H2871   1.109       .  S
C2859      H2872   1.111       .  S
C2873      C2874   1.400       .  A
C2873      C2878   1.409       .  A
C2873      H2883   1.084       .  S
C2874      C2879   1.485   1_545  S
C2874      C2875   1.411       .  A
C2875      C2876   1.404       .  A
C2875      C2880   1.509       .  S
C2876      C2877   1.409       .  A
C2876      H2881   1.083       .  S
C2877      C2878   1.425       .  A
C2878      C2882   1.508       .  S
C2879      C2884   1.412       .  A
C2879      C2888   1.398       .  A
C2880      H2896   1.110       .  S
C2880      H2897   1.108       .  S
C2880      H2898   1.111       .  S
C2882      H2893   1.111       .  S
C2882      H2894   1.110       .  S
C2882      H2895   1.110       .  S
C2884      C2885   1.411       .  A
C2884      C2889   1.506   1_565  S
C2885      C2886   1.408       .  A
C2885      H2890   1.084       .  S
C2886      C2887   1.419       .  A
C2887      C2888   1.400       .  A
C2887      C2891   1.509       .  S
C2888      H2892   1.084       .  S
C2889      H2899   1.111       .  S
C2889      H2900   1.110       .  S
C2889      H2901   1.108       .  S
C2891      H2902   1.111       .  S
C2891      H2903   1.110       .  S
C2891      H2904   1.108       .  S
C2905      C2906   1.405       .  A
C2905      C2910   1.405       .  A
C2905      H2915   1.083       .  S
C2906      C2911   1.487       .  S
C2906      C2907   1.414       .  A
C2907      C2908   1.402       .  A
C2907      C2912   1.508       .  S
C2908      C2909   1.401       .  A
C2908      H2913   1.085       .  S
C2909      C2910   1.414       .  A
C2910      C2914   1.508       .  S
C2911      C2916   1.410       .  A
C2911      C2920   1.401       .  A
C2912      H2928   1.108       .  S
C2912      H2929   1.110       .  S
C2912      H2930   1.111       .  S
C2914      H2925   1.111       .  S
C2914      H2926   1.110       .  S
C2914      H2927   1.108       .  S
C2916      C2917   1.405       .  A
C2916      C2921   1.507       .  S
C2917      C2918   1.410       .  A
C2917      H2922   1.083       .  S
C2918      C2919   1.423       .  A
C2919      C2920   1.404       .  A
C2919      C2923   1.509       .  S
C2920      H2924   1.085       .  S
C2921      H2931   1.111       .  S
C2921      H2932   1.109       .  S
C2921      H2933   1.110       .  S
C2923      H2934   1.111       .  S
C2923      H2935   1.110       .  S
C2923      H2936   1.110       .  S
C2937      C2938   1.402   1_545  A
C2937      C2942   1.408       .  A
C2937      H2947   1.084       .  S
C2938      C2943   1.485       .  S
C2938      C2939   1.408       .  A
C2939      C2940   1.403   1_565  A
C2939      C2944   1.507       .  S
C2940      C2941   1.410       .  A
C2940      H2945   1.083       .  S
C2941      C2942   1.421       .  A
C2942      C2946   1.508       .  S
C2943      C2948   1.408       .  A
C2943      C2952   1.402       .  A
C2944      H2960   1.110       .  S
C2944      H2961   1.110       .  S
C2944      H2962   1.111       .  S
C2946      H2957   1.111       .  S
C2946      H2958   1.110       .  S
C2946      H2959   1.109       .  S
C2948      C2949   1.400       .  A
C2948      C2953   1.508       .  S
C2949      C2950   1.409       .  A
C2949      H2954   1.083       .  S
C2950      C2951   1.422       .  A
C2951      C2952   1.411       .  A
C2951      C2955   1.506       .  S
C2952      H2956   1.085       .  S
C2953      H2963   1.111       .  S
C2953      H2964   1.110       .  S
C2953      H2965   1.110       .  S
C2955      H2966   1.111       .  S
C2955      H2967   1.110       .  S
C2955      H2968   1.109       .  S
C2969      C2970   1.402       .  A
C2969      C2974   1.402       .  A
C2969      H2979   1.084       .  S
C2970      C2975   1.479       .  S
C2970      C2971   1.411       .  A
C2971      C2972   1.403       .  A
C2971      C2976   1.506       .  S
C2972      C2973   1.402       .  A
C2972      H2977   1.085       .  S
C2973      C2974   1.412       .  A
C2974      C2978   1.505       .  S
C2975      C2980   1.408       .  A
C2975      C2984   1.398       .  A
C2976      H2992   1.110       .  S
C2976      H2993   1.110       .  S
C2976      H2994   1.111       .  S
C2978      H2989   1.110       .  S
C2978      H2990   1.110       .  S
C2978      H2991   1.108       .  S
C2980      C2981   1.407       .  A
C2980      C2985   1.505       .  S
C2981      C2982   1.409       .  A
C2981      H2986   1.083       .  S
C2982      C2983   1.421       .  A
C2983      C2984   1.399       .  A
C2983      C2987   1.507       .  S
C2984      H2988   1.085       .  S
C2985      H2995   1.111       .  S
C2985      H2996   1.110       .  S
C2985      H2997   1.110       .  S
C2987      H2998   1.110       .  S
C2987      H2999   1.100       .  S
C2987      H3000   1.111       .  S
C3001      C3002   1.399       .  A
C3001      C3006   1.400       .  A
C3001      H3011   1.084       .  S
C3002      C3007   1.481       .  S
C3002      C3003   1.412       .  A
C3003      C3004   1.407       .  A
C3003      C3008   1.505       .  S
C3004      C3005   1.402       .  A
C3004      H3009   1.084       .  S
C3005      C3006   1.416       .  A
C3006      C3010   1.509       .  S
C3007      C3012   1.410       .  A
C3007      C3016   1.401       .  A
C3008      H3024   1.111       .  S
C3008      H3025   1.110       .  S
C3008      H3026   1.111       .  S
C3010      H3021   1.109       .  S
C3010      H3022   1.110       .  S
C3010      H3023   1.107       .  S
C3012      C3013   1.399       .  A
C3012      C3017   1.508       .  S
C3013      C3014   1.405       .  A
C3013      H3018   1.083       .  S
C3014      C3015   1.421       .  A
C3015      C3016   1.409       .  A
C3015      C3019   1.508       .  S
C3016      H3020   1.084       .  S
C3017      H3027   1.111       .  S
C3017      H3028   1.110       .  S
C3017      H3029   1.110       .  S
C3019      H3030   1.111       .  S
C3019      H3031   1.111       .  S
C3019      H3032   1.109       .  S
C3033      C3034   1.396       .  A
C3033      C3038   1.402       .  A
C3033      H3043   1.084       .  S
C3034      C3039   1.484   1_556  S
C3034      C3035   1.410       .  A
C3035      C3036   1.409       .  A
C3035      C3040   1.505       .  S
C3036      C3037   1.410       .  A
C3036      H3041   1.084       .  S
C3037      C3038   1.426       .  A
C3038      C3042   1.510       .  S
C3039      C3044   1.408       .  A
C3039      C3048   1.400       .  A
C3040      H3056   1.110       .  S
C3040      H3057   1.110       .  S
C3040      H3058   1.111       .  S
C3042      H3053   1.111       .  S
C3042      H3054   1.110       .  S
C3042      H3055   1.109       .  S
C3044      C3045   1.402       .  A
C3044      C3049   1.507       .  S
C3045      C3046   1.409       .  A
C3045      H3050   1.084       .  S
C3046      C3047   1.424       .  A
C3047      C3048   1.408       .  A
C3047      C3051   1.508       .  S
C3048      H3052   1.084       .  S
C3049      H3059   1.111       .  S
C3049      H3060   1.110       .  S
C3049      H3061   1.110       .  S
C3051      H3062   1.111       .  S
C3051      H3063   1.110       .  S
C3051      H3064   1.110       .  S
C3065      C3066   1.397       .  A
C3065      C3070   1.400   1_556  A
C3065      H3075   1.085       .  S
C3066      C3071   1.475       .  S
C3066      C3067   1.409       .  A
C3067      C3068   1.403       .  A
C3067      C3072   1.506       .  S
C3068      C3069   1.406       .  A
C3068      H3073   1.085       .  S
C3069      C3070   1.422   1_556  A
C3070      C3074   1.510       .  S
C3071      C3076   1.409       .  A
C3071      C3080   1.398       .  A
C3072      H3088   1.110       .  S
C3072      H3089   1.110       .  S
C3072      H3090   1.111       .  S
C3074      H3085   1.110       .  S
C3074      H3086   1.111       .  S
C3074      H3087   1.099       .  S
C3076      C3077   1.406       .  A
C3076      C3081   1.505       .  S
C3077      C3078   1.405       .  A
C3077      H3082   1.084       .  S
C3078      C3079   1.416       .  A
C3079      C3080   1.397       .  A
C3079      C3083   1.509       .  S
C3080      H3084   1.085       .  S
C3081      H3091   1.111       .  S
C3081      H3092   1.110       .  S
C3081      H3093   1.110       .  S
C3083      H3094   1.110       .  S
C3083      H3095   1.104       .  S
C3083      H3096   1.111       .  S
C3097      C3098   1.401       .  A
C3097      C3102   1.407       .  A
C3097      H3107   1.084       .  S
C3098      C3103   1.479       .  S
C3098      C3099   1.406       .  A
C3099      C3100   1.400       .  A
C3099      C3104   1.508       .  S
C3100      C3101   1.412       .  A
C3100      H3105   1.083       .  S
C3101      C3102   1.420       .  A
C3102      C3106   1.508       .  S
C3103      C3108   1.410       .  A
C3103      C3112   1.401       .  A
C3104      H3120   1.110       .  S
C3104      H3121   1.109       .  S
C3104      H3122   1.111       .  S
C3106      H3117   1.111       .  S
C3106      H3118   1.111       .  S
C3106      H3119   1.109       .  S
C3108      C3109   1.398       .  A
C3108      C3113   1.509       .  S
C3109      C3110   1.403       .  A
C3109      H3114   1.082       .  S
C3110      C3111   1.420       .  A
C3111      C3112   1.407       .  A
C3111      C3115   1.508       .  S
C3112      H3116   1.085       .  S
C3113      H3123   1.111       .  S
C3113      H3124   1.110       .  S
C3113      H3125   1.109       .  S
C3115      H3126   1.111       .  S
C3115      H3127   1.105       .  S
C3115      H3128   1.110       .  S
C3129      C3130   1.403       .  A
C3129      C3134   1.403       .  A
C3129      H3139   1.085       .  S
C3130      C3135   1.485       .  S
C3130      C3131   1.412       .  A
C3131      C3132   1.405       .  A
C3131      C3136   1.506       .  S
C3132      C3133   1.402       .  A
C3132      H3137   1.084       .  S
C3133      C3134   1.414       .  A
C3134      C3138   1.506       .  S
C3135      C3140   1.411       .  A
C3135      C3144   1.398       .  A
C3136      H3152   1.109       .  S
C3136      H3153   1.110       .  S
C3136      H3154   1.111       .  S
C3138      H3149   1.110       .  S
C3138      H3150   1.110       .  S
C3138      H3151   1.106       .  S
C3140      C3141   1.409       .  A
C3140      C3145   1.505       .  S
C3141      C3142   1.407       .  A
C3141      H3146   1.084       .  S
C3142      C3143   1.422       .  A
C3143      C3144   1.401       .  A
C3143      C3147   1.510       .  S
C3144      H3148   1.084       .  S
C3145      H3155   1.111       .  S
C3145      H3156   1.110       .  S
C3145      H3157   1.110       .  S
C3147      H3158   1.109       .  S
C3147      H3159   1.110       .  S
C3147      H3160   1.111       .  S
C3161      C3162   1.401       .  A
C3161      C3166   1.403       .  A
C3161      H3171   1.085       .  S
C3162      C3167   1.484   1_545  S
C3162      C3163   1.411       .  A
C3163      C3164   1.407       .  A
C3163      C3168   1.506       .  S
C3164      C3165   1.406       .  A
C3164      H3169   1.084       .  S
C3165      C3166   1.417       .  A
C3166      C3170   1.507       .  S
C3167      C3172   1.411       .  A
C3167      C3176   1.403       .  A
C3168      H3184   1.110       .  S
C3168      H3185   1.109       .  S
C3168      H3186   1.111       .  S
C3170      H3181   1.111       .  S
C3170      H3182   1.110       .  S
C3170      H3183   1.106       .  S
C3172      C3173   1.405       .  A
C3172      C3177   1.506       .  S
C3173      C3174   1.404       .  A
C3173      H3178   1.085       .  S
C3174      C3175   1.415       .  A
C3175      C3176   1.404       .  A
C3175      C3179   1.507       .  S
C3176      H3180   1.084       .  S
C3177      H3187   1.111       .  S
C3177      H3188   1.110       .  S
C3177      H3189   1.109       .  S
C3179      H3190   1.110       .  S
C3179      H3191   1.107       .  S
C3179      H3192   1.111       .  S
C3193      C3194   1.401       .  A
C3193      C3198   1.405       .  A
C3193      H3203   1.084       .  S
C3194      C3199   1.480   1_556  S
C3194      C3195   1.409       .  A
C3195      C3196   1.402       .  A
C3195      C3200   1.506   1_556  S
C3196      C3197   1.406       .  A
C3196      H3201   1.083       .  S
C3197      C3198   1.420       .  A
C3198      C3202   1.509       .  S
C3199      C3204   1.410       .  A
C3199      C3208   1.399       .  A
C3200      H3216   1.110       .  S
C3200      H3217   1.110       .  S
C3200      H3218   1.111   1_554  S
C3202      H3213   1.110       .  S
C3202      H3214   1.111       .  S
C3202      H3215   1.108       .  S
C3204      C3205   1.407       .  A
C3204      C3209   1.505       .  S
C3205      C3206   1.406       .  A
C3205      H3210   1.084       .  S
C3206      C3207   1.419       .  A
C3207      C3208   1.400       .  A
C3207      C3211   1.509       .  S
C3208      H3212   1.085       .  S
C3209      H3219   1.111       .  S
C3209      H3220   1.110       .  S
C3209      H3221   1.110       .  S
C3211      H3222   1.110       .  S
C3211      H3223   1.107       .  S
C3211      H3224   1.111       .  S
C3225      C3226   1.401       .  A
C3225      C3230   1.404       .  A
C3225      H3235   1.084       .  S
C3226      C3231   1.477       .  S
C3226      C3227   1.409       .  A
C3227      C3228   1.399       .  A
C3227      C3232   1.507       .  S
C3228      C3229   1.404       .  A
C3228      H3233   1.085       .  S
C3229      C3230   1.417       .  A
C3230      C3234   1.508       .  S
C3231      C3236   1.407       .  A
C3231      C3240   1.397       .  A
C3232      H3248   1.110       .  S
C3232      H3249   1.110       .  S
C3232      H3250   1.111       .  S
C3234      H3245   1.111       .  S
C3234      H3246   1.110       .  S
C3234      H3247   1.106       .  S
C3236      C3237   1.402       .  A
C3236      C3241   1.507       .  S
C3237      C3238   1.411       .  A
C3237      H3242   1.083       .  S
C3238      C3239   1.424       .  A
C3239      C3240   1.404       .  A
C3239      C3243   1.508       .  S
C3240      H3244   1.085       .  S
C3241      H3251   1.111       .  S
C3241      H3252   1.110       .  S
C3241      H3253   1.110       .  S
C3243      H3254   1.111       .  S
C3243      H3255   1.110       .  S
C3243      H3256   1.110       .  S
C3257      C3258   1.401       .  A
C3257      C3262   1.400       .  A
C3257      H3267   1.085       .  S
C3258      C3263   1.486       .  S
C3258      C3259   1.414       .  A
C3259      C3260   1.408       .  A
C3259      C3264   1.506       .  S
C3260      C3261   1.403       .  A
C3260      H3265   1.084       .  S
C3261      C3262   1.415       .  A
C3262      C3266   1.507       .  S
C3263      C3268   1.415       .  A
C3263      C3272   1.400       .  A
C3264      H3280   1.109       .  S
C3264      H3281   1.110       .  S
C3264      H3282   1.111       .  S
C3266      H3277   1.110       .  S
C3266      H3278   1.111       .  S
C3266      H3279   1.103       .  S
C3268      C3269   1.409       .  A
C3268      C3273   1.506       .  S
C3269      C3270   1.403       .  A
C3269      H3274   1.084       .  S
C3270      C3271   1.417       .  A
C3271      C3272   1.399       .  A
C3271      C3275   1.508       .  S
C3272      H3276   1.084       .  S
C3273      H3283   1.111       .  S
C3273      H3284   1.109       .  S
C3273      H3285   1.110       .  S
C3275      H3286   1.110       .  S
C3275      H3287   1.104       .  S
C3275      H3288   1.111       .  S
C3289      C3290   1.401       .  A
C3289      C3294   1.406       .  A
C3289      H3299   1.084       .  S
C3290      C3295   1.477       .  S
C3290      C3291   1.409       .  A
C3291      C3292   1.398       .  A
C3291      C3296   1.508       .  S
C3292      C3293   1.404       .  A
C3292      H3297   1.084       .  S
C3293      C3294   1.420       .  A
C3294      C3298   1.508       .  S
C3295      C3300   1.405       .  A
C3295      C3304   1.399       .  A
C3296      H3312   1.110       .  S
C3296      H3313   1.110       .  S
C3296      H3314   1.111       .  S
C3298      H3309   1.110       .  S
C3298      H3310   1.111       .  S
C3298      H3311   1.104       .  S
C3300      C3301   1.401       .  A
C3300      C3305   1.507       .  S
C3301      C3302   1.411       .  A
C3301      H3306   1.083       .  S
C3302      C3303   1.422       .  A
C3303      C3304   1.404       .  A
C3303      C3307   1.508       .  S
C3304      H3308   1.085       .  S
C3305      H3315   1.110       .  S
C3305      H3316   1.110       .  S
C3305      H3317   1.110       .  S
C3307      H3318   1.110       .  S
C3307      H3319   1.110       .  S
C3307      H3320   1.111       .  S
C3321      C3322   1.398       .  A
C3321      C3326   1.407       .  A
C3321      H3331   1.084       .  S
C3322      C3327   1.484       .  S
C3322      C3323   1.409       .  A
C3323      C3324   1.404       .  A
C3323      C3328   1.507       .  S
C3324      C3325   1.409       .  A
C3324      H3329   1.083       .  S
C3325      C3326   1.427       .  A
C3326      C3330   1.509       .  S
C3327      C3332   1.408       .  A
C3327      C3336   1.401       .  A
C3328      H3344   1.110       .  S
C3328      H3345   1.110       .  S
C3328      H3346   1.110       .  S
C3330      H3341   1.110       .  S
C3330      H3342   1.111       .  S
C3330      H3343   1.110       .  S
C3332      C3333   1.400       .  A
C3332      C3337   1.508       .  S
C3333      C3334   1.410       .  A
C3333      H3338   1.080       .  S
C3334      C3335   1.425       .  A
C3335      C3336   1.411       .  A
C3335      C3339   1.507       .  S
C3336      H3340   1.084       .  S
C3337      H3347   1.111       .  S
C3337      H3348   1.110       .  S
C3337      H3349   1.110       .  S
C3339      H3350   1.110       .  S
C3339      H3351   1.110       .  S
C3339      H3352   1.111       .  S
C3353      C3354   1.399       .  A
C3353      C3358   1.407       .  A
C3353      H3363   1.084       .  S
C3354      C3359   1.481       .  S
C3354      C3355   1.409       .  A
C3355      C3356   1.400       .  A
C3355      C3360   1.509       .  S
C3356      C3357   1.410       .  A
C3356      H3361   1.084       .  S
C3357      C3358   1.424       .  A
C3358      C3362   1.508       .  S
C3359      C3364   1.411       .  A
C3359      C3368   1.401       .  A
C3360      H3376   1.109       .  S
C3360      H3377   1.110       .  S
C3360      H3378   1.111       .  S
C3362      H3373   1.110       .  S
C3362      H3374   1.111       .  S
C3362      H3375   1.110       .  S
C3364      C3365   1.404       .  A
C3364      C3369   1.506       .  S
C3365      C3366   1.404       .  A
C3365      H3370   1.084       .  S
C3366      C3367   1.416       .  A
C3367      C3368   1.400       .  A
C3367      C3371   1.509       .  S
C3368      H3372   1.084       .  S
C3369      H3379   1.111       .  S
C3369      H3380   1.110       .  S
C3369      H3381   1.110       .  S
C3371      H3382   1.110       .  S
C3371      H3383   1.106       .  S
C3371      H3384   1.110       .  S
C3385      C3386   1.401       .  A
C3385      C3390   1.408       .  A
C3385      H3395   1.084       .  S
C3386      C3391   1.478       .  S
C3386      C3387   1.406       .  A
C3387      C3388   1.398       .  A
C3387      C3392   1.509       .  S
C3388      C3389   1.410       .  A
C3388      H3393   1.083       .  S
C3389      C3390   1.422       .  A
C3390      C3394   1.508       .  S
C3391      C3396   1.410       .  A
C3391      C3400   1.399       .  A
C3392      H3408   1.110       .  S
C3392      H3409   1.109       .  S
C3392      H3410   1.111       .  S
C3394      H3405   1.111       .  S
C3394      H3406   1.110   1_554  S
C3394      H3407   1.110       .  S
C3396      C3397   1.402       .  A
C3396      C3401   1.507       .  S
C3397      C3398   1.406       .  A
C3397      H3402   1.084       .  S
C3398      C3399   1.418       .  A
C3399      C3400   1.403       .  A
C3399      C3403   1.508       .  S
C3400      H3404   1.085       .  S
C3401      H3411   1.111       .  S
C3401      H3412   1.110       .  S
C3401      H3413   1.110       .  S
C3403      H3414   1.111       .  S
C3403      H3415   1.106       .  S
C3403      H3416   1.110       .  S
C3417      C3418   1.402   1_554  A
C3417      C3422   1.406   1_545  A
C3417      H3427   1.084       .  S
C3418      C3423   1.477       .  S
C3418      C3419   1.409       .  A
C3419      C3420   1.399   1_545  A
C3419      C3424   1.508       .  S
C3420      C3421   1.404   1_556  A
C3420      H3425   1.084       .  S
C3421      C3422   1.416       .  A
C3422      C3426   1.507       .  S
C3423      C3428   1.406       .  A
C3423      C3432   1.399   1_556  A
C3424      H3440   1.110       .  S
C3424      H3441   1.109       .  S
C3424      H3442   1.111       .  S
C3426      H3437   1.111       .  S
C3426      H3438   1.111       .  S
C3426      H3439   1.110       .  S
C3428      C3429   1.404       .  A
C3428      C3433   1.506       .  S
C3429      C3430   1.412       .  A
C3429      H3434   1.084       .  S
C3430      C3431   1.421   1_556  A
C3431      C3432   1.402       .  A
C3431      C3435   1.507       .  S
C3432      H3436   1.085       .  S
C3433      H3443   1.111       .  S
C3433      H3444   1.110       .  S
C3433      H3445   1.109       .  S
C3435      H3446   1.111       .  S
C3435      H3447   1.110       .  S
C3435      H3448   1.110       .  S
C3449      C3450   1.401       .  A
C3449      C3454   1.408       .  A
C3449      H3459   1.084       .  S
C3450      C3455   1.485       .  S
C3450      C3451   1.410       .  A
C3451      C3452   1.402       .  A
C3451      C3456   1.507       .  S
C3452      C3453   1.407       .  A
C3452      H3457   1.084       .  S
C3453      C3454   1.422       .  A
C3454      C3458   1.508       .  S
C3455      C3460   1.409       .  A
C3455      C3464   1.401       .  A
C3456      H3472   1.110       .  S
C3456      H3473   1.110       .  S
C3456      H3474   1.111       .  S
C3458      H3469   1.110       .  S
C3458      H3470   1.111       .  S
C3458      H3471   1.104       .  S
C3460      C3461   1.406       .  A
C3460      C3465   1.506       .  S
C3461      C3462   1.409       .  A
C3461      H3466   1.084       .  S
C3462      C3463   1.420       .  A
C3463      C3464   1.405       .  A
C3463      C3467   1.509       .  S
C3464      H3468   1.084       .  S
C3465      H3475   1.111   1_556  S
C3465      H3476   1.110       .  S
C3465      H3477   1.110   1_556  S
C3467      H3478   1.111       .  S
C3467      H3479   1.111       .  S
C3467      H3480   1.109       .  S
C3481      C3482   1.404       .  A
C3481      C3486   1.405       .  A
C3481      H3491   1.084       .  S
C3482      C3487   1.485       .  S
C3482      C3483   1.412   1_554  A
C3483      C3484   1.405       .  A
C3483      C3488   1.507       .  S
C3484      C3485   1.403   1_556  A
C3484      H3489   1.084       .  S
C3485      C3486   1.414       .  A
C3486      C3490   1.507       .  S
C3487      C3492   1.410       .  A
C3487      C3496   1.398       .  A
C3488      H3504   1.110       .  S
C3488      H3505   1.108       .  S
C3488      H3506   1.111       .  S
C3490      H3501   1.111       .  S
C3490      H3502   1.110       .  S
C3490      H3503   1.109       .  S
C3492      C3493   1.410       .  A
C3492      C3497   1.506       .  S
C3493      C3494   1.409       .  A
C3493      H3498   1.084       .  S
C3494      C3495   1.424       .  A
C3495      C3496   1.401       .  A
C3495      C3499   1.510       .  S
C3496      H3500   1.085       .  S
C3497      H3507   1.111       .  S
C3497      H3508   1.110       .  S
C3497      H3509   1.108       .  S
C3499      H3510   1.111       .  S
C3499      H3511   1.102       .  S
C3499      H3512   1.111   1_554  S
C3513      C3514   1.397       .  A
C3513      C3518   1.401       .  A
C3513      H3523   1.084       .  S
C3514      C3519   1.480       .  S
C3514      C3515   1.410       .  A
C3515      C3516   1.407       .  A
C3515      C3520   1.506       .  S
C3516      C3517   1.409       .  A
C3516      H3521   1.083       .  S
C3517      C3518   1.423       .  A
C3518      C3522   1.510       .  S
C3519      C3524   1.411       .  A
C3519      C3528   1.401       .  A
C3520      H3536   1.110       .  S
C3520      H3537   1.109       .  S
C3520      H3538   1.111       .  S
C3522      H3533   1.109       .  S
C3522      H3534   1.111       .  S
C3522      H3535   1.111       .  S
C3524      C3525   1.403       .  A
C3524      C3529   1.508       .  S
C3525      C3526   1.404       .  A
C3525      H3530   1.083       .  S
C3526      C3527   1.418       .  A
C3527      C3528   1.404       .  A
C3527      C3531   1.508       .  S
C3528      H3532   1.084       .  S
C3529      H3539   1.111       .  S
C3529      H3540   1.110       .  S
C3529      H3541   1.108       .  S
C3531      H3542   1.110       .  S
C3531      H3543   1.107       .  S
C3531      H3544   1.111       .  S
C3545      C3546   1.402       .  A
C3545      C3550   1.406       .  A
C3545      H3555   1.085       .  S
C3546      C3551   1.483       .  S
C3546      C3547   1.410       .  A
C3547      C3548   1.402       .  A
C3547      C3552   1.507       .  S
C3548      C3549   1.404       .  A
C3548      H3553   1.085       .  S
C3549      C3550   1.419       .  A
C3550      C3554   1.509       .  S
C3551      C3556   1.411       .  A
C3551      C3560   1.400       .  A
C3552      H3568   1.110       .  S
C3552      H3569   1.110       .  S
C3552      H3570   1.111       .  S
C3554      H3565   1.110       .  S
C3554      H3566   1.111       .  S
C3554      H3567   1.105       .  S
C3556      C3557   1.407       .  A
C3556      C3561   1.505       .  S
C3557      C3558   1.406       .  A
C3557      H3562   1.084       .  S
C3558      C3559   1.418       .  A
C3559      C3560   1.401       .  A
C3559      C3563   1.510       .  S
C3560      H3564   1.085       .  S
C3561      H3571   1.111       .  S
C3561      H3572   1.110       .  S
C3561      H3573   1.110       .  S
C3563      H3574   1.111       .  S
C3563      H3575   1.106       .  S
C3563      H3576   1.110       .  S
C3577      C3578   1.400       .  A
C3577      C3582   1.401       .  A
C3577      H3587   1.084       .  S
C3578      C3583   1.479       .  S
C3578      C3579   1.409       .  A
C3579      C3580   1.404       .  A
C3579      C3584   1.505       .  S
C3580      C3581   1.405       .  A
C3580      H3585   1.085       .  S
C3581      C3582   1.419       .  A
C3582      C3586   1.510       .  S
C3583      C3588   1.409       .  A
C3583      C3592   1.397       .  A
C3584      H3600   1.110       .  S
C3584      H3601   1.110       .  S
C3584      H3602   1.111       .  S
C3586      H3597   1.111       .  S
C3586      H3598   1.110       .  S
C3586      H3599   1.106       .  S
C3588      C3589   1.405       .  A
C3588      C3593   1.506       .  S
C3589      C3590   1.408       .  A
C3589      H3594   1.084       .  S
C3590      C3591   1.422       .  A
C3591      C3592   1.401       .  A
C3591      C3595   1.508       .  S
C3592      H3596   1.084       .  S
C3593      H3603   1.111       .  S
C3593      H3604   1.110       .  S
C3593      H3605   1.110       .  S
C3595      H3606   1.111       .  S
C3595      H3607   1.110       .  S
C3595      H3608   1.110       .  S
C3609      C3610   1.403       .  A
C3609      C3614   1.410       .  A
C3609      H3619   1.085       .  S
C3610      C3615   1.486       .  S
C3610      C3611   1.411       .  A
C3611      C3612   1.401       .  A
C3611      C3616   1.508       .  S
C3612      C3613   1.405       .  A
C3612      H3617   1.084       .  S
C3613      C3614   1.419       .  A
C3614      C3618   1.507       .  S
C3615      C3620   1.412       .  A
C3615      C3624   1.401       .  A
C3616      H3632   1.110       .  S
C3616      H3633   1.110       .  S
C3616      H3634   1.111       .  S
C3618      H3629   1.111       .  S
C3618      H3630   1.110       .  S
C3618      H3631   1.105       .  S
C3620      C3621   1.405       .  A
C3620      C3625   1.506       .  S
C3621      C3622   1.404       .  A
C3621      H3626   1.084       .  S
C3622      C3623   1.419       .  A
C3623      C3624   1.405       .  A
C3623      C3627   1.509       .  S
C3624      H3628   1.085       .  S
C3625      H3635   1.111       .  S
C3625      H3636   1.110       .  S
C3625      H3637   1.110       .  S
C3627      H3638   1.110       .  S
C3627      H3639   1.105       .  S
C3627      H3640   1.111       .  S
C3641      C3642   1.402       .  A
C3641      C3646   1.409       .  A
C3641      H3651   1.084       .  S
C3642      C3647   1.485       .  S
C3642      C3643   1.409       .  A
C3643      C3644   1.401       .  A
C3643      C3648   1.508       .  S
C3644      C3645   1.410       .  A
C3644      H3649   1.083       .  S
C3645      C3646   1.421       .  A
C3646      C3650   1.507       .  S
C3647      C3652   1.410   1_556  A
C3647      C3656   1.401   1_556  A
C3648      H3664   1.109   1_556  S
C3648      H3665   1.110   1_556  S
C3648      H3666   1.110       .  S
C3650      H3661   1.111       .  S
C3650      H3662   1.111       .  S
C3650      H3663   1.110       .  S
C3652      C3653   1.403       .  A
C3652      C3657   1.507   1_554  S
C3653      C3654   1.408       .  A
C3653      H3658   1.084       .  S
C3654      C3655   1.421       .  A
C3655      C3656   1.406       .  A
C3655      C3659   1.508       .  S
C3656      H3660   1.085       .  S
C3657      H3667   1.111   1_556  S
C3657      H3668   1.110       .  S
C3657      H3669   1.111       .  S
C3659      H3670   1.111       .  S
C3659      H3671   1.111       .  S
C3659      H3672   1.110       .  S
C3673      C3674   1.399       .  A
C3673      C3678   1.402       .  A
C3673      H3683   1.086       .  S
C3674      C3679   1.481       .  S
C3674      C3675   1.411       .  A
C3675      C3676   1.407       .  A
C3675      C3680   1.506       .  S
C3676      C3677   1.405       .  A
C3676      H3681   1.083       .  S
C3677      C3678   1.419       .  A
C3678      C3682   1.510       .  S
C3679      C3684   1.409       .  A
C3679      C3688   1.402       .  A
C3680      H3696   1.111       .  S
C3680      H3697   1.110       .  S
C3680      H3698   1.110       .  S
C3682      H3693   1.111       .  S
C3682      H3694   1.111       .  S
C3682      H3695   1.106       .  S
C3684      C3685   1.401       .  A
C3684      C3689   1.508       .  S
C3685      C3686   1.407       .  A
C3685      H3690   1.085       .  S
C3686      C3687   1.419       .  A
C3687      C3688   1.408       .  A
C3687      C3691   1.508       .  S
C3688      H3692   1.083       .  S
C3689      H3699   1.111       .  S
C3689      H3700   1.110       .  S
C3689      H3701   1.110       .  S
C3691      H3702   1.111       .  S
C3691      H3703   1.111       .  S
C3691      H3704   1.110       .  S
C3705      C3706   1.398       .  A
C3705      C3710   1.399       .  A
C3705      H3715   1.085       .  S
C3706      C3711   1.480       .  S
C3706      C3707   1.411       .  A
C3707      C3708   1.408       .  A
C3707      C3712   1.505       .  S
C3708      C3709   1.406       .  A
C3708      H3713   1.084       .  S
C3709      C3710   1.416       .  A
C3710      C3714   1.506       .  S
C3711      C3716   1.411       .  A
C3711      C3720   1.401       .  A
C3712      H3728   1.110       .  S
C3712      H3729   1.109       .  S
C3712      H3730   1.111       .  S
C3714      H3725   1.110       .  S
C3714      H3726   1.110       .  S
C3714      H3727   1.105       .  S
C3716      C3717   1.401       .  A
C3716      C3721   1.509       .  S
C3717      C3718   1.404       .  A
C3717      H3722   1.085       .  S
C3718      C3719   1.418       .  A
C3719      C3720   1.406       .  A
C3719      C3723   1.508       .  S
C3720      H3724   1.085       .  S
C3721      H3731   1.111       .  S
C3721      H3732   1.110       .  S
C3721      H3733   1.109       .  S
C3723      H3734   1.111       .  S
C3723      H3735   1.106       .  S
C3723      H3736   1.110       .  S
C3737      C3738   1.399       .  A
C3737      C3742   1.403       .  A
C3737      H3747   1.084       .  S
C3738      C3743   1.485       .  S
C3738      C3739   1.410       .  A
C3739      C3740   1.408       .  A
C3739      C3744   1.505       .  S
C3740      C3741   1.408       .  A
C3740      H3745   1.084       .  S
C3741      C3742   1.421       .  A
C3742      C3746   1.509       .  S
C3743      C3748   1.409       .  A
C3743      C3752   1.400       .  A
C3744      H3760   1.110       .  S
C3744      H3761   1.110       .  S
C3744      H3762   1.111       .  S
C3746      H3757   1.111       .  S
C3746      H3758   1.111       .  S
C3746      H3759   1.109       .  S
C3748      C3749   1.405       .  A
C3748      C3753   1.507       .  S
C3749      C3750   1.409       .  A
C3749      H3754   1.083       .  S
C3750      C3751   1.424       .  A
C3751      C3752   1.407       .  A
C3751      C3755   1.508       .  S
C3752      H3756   1.085       .  S
C3753      H3763   1.111       .  S
C3753      H3764   1.110       .  S
C3753      H3765   1.110       .  S
C3755      H3766   1.111       .  S
C3755      H3767   1.099       .  S
C3755      H3768   1.110       .  S
C3769      C3770   1.399       .  A
C3769      C3774   1.404       .  A
C3769      H3779   1.085       .  S
C3770      C3775   1.487   1_556  S
C3770      C3771   1.410       .  A
C3771      C3772   1.406       .  A
C3771      C3776   1.506   1_556  S
C3772      C3773   1.410       .  A
C3772      H3777   1.085       .  S
C3773      C3774   1.423       .  A
C3774      C3778   1.508       .  S
C3775      C3780   1.411       .  A
C3775      C3784   1.400       .  A
C3776      H3792   1.109       .  S
C3776      H3793   1.110       .  S
C3776      H3794   1.111   1_554  S
C3778      H3789   1.110       .  S
C3778      H3790   1.111       .  S
C3778      H3791   1.098       .  S
C3780      C3781   1.408       .  A
C3780      C3785   1.506       .  S
C3781      C3782   1.407       .  A
C3781      H3786   1.084       .  S
C3782      C3783   1.422       .  A
C3783      C3784   1.403       .  A
C3783      C3787   1.510       .  S
C3784      H3788   1.085       .  S
C3785      H3795   1.111       .  S
C3785      H3796   1.109       .  S
C3785      H3797   1.110       .  S
C3787      H3798   1.109       .  S
C3787      H3799   1.111       .  S
C3787      H3800   1.111       .  S
C3801      C3802   1.398       .  A
C3801      C3806   1.400       .  A
C3801      H3811   1.084       .  S
C3802      C3807   1.481       .  S
C3802      C3803   1.408       .  A
C3803      C3804   1.407   1_554  A
C3803      C3808   1.505       .  S
C3804      C3805   1.410   1_556  A
C3804      H3809   1.085       .  S
C3805      C3806   1.424       .  A
C3806      C3810   1.511       .  S
C3807      C3812   1.408       .  A
C3807      C3816   1.399       .  A
C3808      H3824   1.110       .  S
C3808      H3825   1.110       .  S
C3808      H3826   1.111   1_554  S
C3810      H3821   1.111       .  S
C3810      H3822   1.111       .  S
C3810      H3823   1.110       .  S
C3812      C3813   1.404       .  A
C3812      C3817   1.506       .  S
C3813      C3814   1.409       .  A
C3813      H3818   1.084       .  S
C3814      C3815   1.425       .  A
C3815      C3816   1.405       .  A
C3815      C3819   1.510       .  S
C3816      H3820   1.085       .  S
C3817      H3827   1.111       .  S
C3817      H3828   1.110       .  S
C3817      H3829   1.110       .  S
C3819      H3830   1.111       .  S
C3819      H3831   1.109       .  S
C3819      H3832   1.111       .  S
C3833      C3834   1.401       .  A
C3833      C3838   1.409       .  A
C3833      H3843   1.084       .  S
C3834      C3839   1.486       .  S
C3834      C3835   1.409       .  A
C3835      C3836   1.403       .  A
C3835      C3840   1.507       .  S
C3836      C3837   1.408       .  A
C3836      H3841   1.084       .  S
C3837      C3838   1.422       .  A
C3838      C3842   1.507       .  S
C3839      C3844   1.410       .  A
C3839      C3848   1.401       .  A
C3840      H3856   1.110       .  S
C3840      H3857   1.110       .  S
C3840      H3858   1.111       .  S
C3842      H3853   1.110       .  S
C3842      H3854   1.111       .  S
C3842      H3855   1.110       .  S
C3844      C3845   1.406       .  A
C3844      C3849   1.506       .  S
C3845      C3846   1.407       .  A
C3845      H3850   1.084       .  S
C3846      C3847   1.419       .  A
C3847      C3848   1.405       .  A
C3847      C3851   1.509       .  S
C3848      H3852   1.085       .  S
C3849      H3859   1.111       .  S
C3849      H3860   1.110       .  S
C3849      H3861   1.110       .  S
C3851      H3862   1.111       .  S
C3851      H3863   1.107       .  S
C3851      H3864   1.110       .  S
C3865      C3866   1.401       .  A
C3865      C3870   1.406       .  A
C3865      H3875   1.085       .  S
C3866      C3871   1.485       .  S
C3866      C3867   1.411       .  A
C3867      C3868   1.403       .  A
C3867      C3872   1.508       .  S
C3868      C3869   1.406       .  A
C3868      H3873   1.084       .  S
C3869      C3870   1.421       .  A
C3870      C3874   1.508       .  S
C3871      C3876   1.411       .  A
C3871      C3880   1.400       .  A
C3872      H3888   1.110       .  S
C3872      H3889   1.110       .  S
C3872      H3890   1.111       .  S
C3874      H3885   1.110       .  S
C3874      H3886   1.111       .  S
C3874      H3887   1.110       .  S
C3876      C3877   1.404       .  A
C3876      C3881   1.507       .  S
C3877      C3878   1.408       .  A
C3877      H3882   1.084       .  S
C3878      C3879   1.423       .  A
C3879      C3880   1.406       .  A
C3879      C3883   1.508       .  S
C3880      H3884   1.085       .  S
C3881      H3891   1.111       .  S
C3881      H3892   1.110       .  S
C3881      H3893   1.110       .  S
C3883      H3894   1.111       .  S
C3883      H3895   1.110       .  S
C3883      H3896   1.109       .  S
C3897      C3898   1.401       .  A
C3897      C3902   1.408       .  A
C3897      H3907   1.085       .  S
C3898      C3903   1.489       .  S
C3898      C3899   1.411       .  A
C3899      C3900   1.405       .  A
C3899      C3904   1.508       .  S
C3900      C3901   1.409       .  A
C3900      H3905   1.084       .  S
C3901      C3902   1.424       .  A
C3902      C3906   1.509       .  S
C3903      C3908   1.410       .  A
C3903      C3912   1.400       .  A
C3904      H3920   1.110       .  S
C3904      H3921   1.108       .  S
C3904      H3922   1.111       .  S
C3906      H3917   1.110       .  S
C3906      H3918   1.111       .  S
C3906      H3919   1.101       .  S
C3908      C3909   1.409       .  A
C3908      C3913   1.506       .  S
C3909      C3910   1.411       .  A
C3909      H3914   1.083       .  S
C3910      C3911   1.424       .  A
C3911      C3912   1.406       .  A
C3911      C3915   1.510       .  S
C3912      H3916   1.084       .  S
C3913      H3923   1.111       .  S
C3913      H3924   1.110       .  S
C3913      H3925   1.108       .  S
C3915      H3926   1.111       .  S
C3915      H3927   1.109       .  S
C3915      H3928   1.111       .  S
C3929      C3930   1.398       .  A
C3929      C3934   1.404       .  A
C3929      H3939   1.084       .  S
C3930      C3935   1.479       .  S
C3930      C3931   1.408       .  A
C3931      C3932   1.402       .  A
C3931      C3936   1.507       .  S
C3932      C3933   1.409       .  A
C3932      H3937   1.083       .  S
C3933      C3934   1.425       .  A
C3934      C3938   1.508       .  S
C3935      C3940   1.409       .  A
C3935      C3944   1.398       .  A
C3936      H3952   1.110       .  S
C3936      H3953   1.110       .  S
C3936      H3954   1.111       .  S
C3938      H3949   1.110       .  S
C3938      H3950   1.111       .  S
C3938      H3951   1.109       .  S
C3940      C3941   1.405       .  A
C3940      C3945   1.506       .  S
C3941      C3942   1.407       .  A
C3941      H3946   1.085       .  S
C3942      C3943   1.420       .  A
C3943      C3944   1.401       .  A
C3943      C3947   1.508       .  S
C3944      H3948   1.084       .  S
C3945      H3955   1.111       .  S
C3945      H3956   1.110       .  S
C3945      H3957   1.110       .  S
C3947      H3958   1.109       .  S
C3947      H3959   1.109       .  S
C3947      H3960   1.111       .  S
C3961      C3962   1.403       .  A
C3961      C3966   1.407       .  A
C3961      H3971   1.084       .  S
C3962      C3967   1.484       .  S
C3962      C3963   1.411       .  A
C3963      C3964   1.404       .  A
C3963      C3968   1.507       .  S
C3964      C3965   1.405       .  A
C3964      H3969   1.085       .  S
C3965      C3966   1.416       .  A
C3966      C3970   1.508       .  S
C3967      C3972   1.411       .  A
C3967      C3976   1.401       .  A
C3968      H3984   1.110       .  S
C3968      H3985   1.109       .  S
C3968      H3986   1.111       .  S
C3970      H3981   1.110       .  S
C3970      H3982   1.111       .  S
C3970      H3983   1.107       .  S
C3972      C3973   1.407       .  A
C3972      C3977   1.505       .  S
C3973      C3974   1.405       .  A
C3973      H3978   1.084       .  S
C3974      C3975   1.418       .  A
C3975      C3976   1.403       .  A
C3975      C3979   1.510       .  S
C3976      H3980   1.085       .  S
C3977      H3987   1.111       .  S
C3977      H3988   1.110       .  S
C3977      H3989   1.109       .  S
C3979      H3990   1.111       .  S
C3979      H3991   1.106       .  S
C3979      H3992   1.110       .  S
C3993      C3994   1.403       .  A
C3993      C3998   1.405       .  A
C3993      H4003   1.084       .  S
C3994      C3999   1.481       .  S
C3994      C3995   1.412       .  A
C3995      C3996   1.397       .  A
C3995      C4000   1.509       .  S
C3996      C3997   1.402       .  A
C3996      H4001   1.086       .  S
C3997      C3998   1.416       .  A
C3998      C4002   1.508       .  S
C3999      C4004   1.412       .  A
C3999      C4008   1.403       .  A
C4000      H4016   1.109       .  S
C4000      H4017   1.110       .  S
C4000      H4018   1.111       .  S
C4002      H4013   1.111       .  S
C4002      H4014   1.110       .  S
C4002      H4015   1.106       .  S
C4004      C4005   1.399       .  A
C4004      C4009   1.509       .  S
C4005      C4006   1.402       .  A
C4005      H4010   1.084       .  S
C4006      C4007   1.415       .  A
C4007      C4008   1.404       .  A
C4007      C4011   1.507       .  S
C4008      H4012   1.085       .  S
C4009      H4019   1.111       .  S
C4009      H4020   1.109       .  S
C4009      H4021   1.110       .  S
C4011      H4022   1.110       .  S
C4011      H4023   1.106       .  S
C4011      H4024   1.111       .  S
C4025      C4026   1.402       .  A
C4025      C4030   1.411       .  A
C4025      H4035   1.085       .  S
C4026      C4031   1.488       .  S
C4026      C4027   1.409       .  A
C4027      C4028   1.401       .  A
C4027      C4032   1.509       .  S
C4028      C4029   1.411       .  A
C4028      H4033   1.082       .  S
C4029      C4030   1.423       .  A
C4030      C4034   1.507       .  S
C4031      C4036   1.411       .  A
C4031      C4040   1.403       .  A
C4032      H4048   1.110       .  S
C4032      H4049   1.111       .  S
C4032      H4050   1.111       .  S
C4034      H4045   1.111       .  S
C4034      H4046   1.110       .  S
C4034      H4047   1.110       .  S
C4036      C4037   1.405       .  A
C4036      C4041   1.507       .  S
C4037      C4038   1.404       .  A
C4037      H4042   1.084       .  S
C4038      C4039   1.419       .  A
C4039      C4040   1.407       .  A
C4039      C4043   1.508       .  S
C4040      H4044   1.082       .  S
C4041      H4051   1.111       .  S
C4041      H4052   1.110       .  S
C4041      H4053   1.110       .  S
C4043      H4054   1.110       .  S
C4043      H4055   1.106       .  S
C4043      H4056   1.111       .  S
C4057      C4058   1.401       .  A
C4057      C4062   1.406   1_455  A
C4057      H4067   1.084       .  S
C4058      C4063   1.476       .  S
C4058      C4059   1.409       .  A
C4059      C4060   1.399   1_455  A
C4059      C4064   1.508       .  S
C4060      C4061   1.405       .  A
C4060      H4065   1.083       .  S
C4061      C4062   1.418       .  A
C4062      C4066   1.507       .  S
C4063      C4068   1.409       .  A
C4063      C4072   1.399       .  A
C4064      H4080   1.110       .  S
C4064      H4081   1.110       .  S
C4064      H4082   1.111   1_455  S
C4066      H4077   1.111       .  S
C4066      H4078   1.111       .  S
C4066      H4079   1.110       .  S
C4068      C4069   1.406       .  A
C4068      C4073   1.505       .  S
C4069      C4070   1.405       .  A
C4069      H4074   1.084       .  S
C4070      C4071   1.414       .  A
C4071      C4072   1.399       .  A
C4071      C4075   1.508       .  S
C4072      H4076   1.085       .  S
C4073      H4083   1.111       .  S
C4073      H4084   1.110       .  S
C4073      H4085   1.110       .  S
C4075      H4086   1.111       .  S
C4075      H4087   1.110       .  S
C4075      H4088   1.109       .  S
C4089      C4090   1.405       .  A
C4089      C4094   1.412       .  A
C4089      H4099   1.083       .  S
C4090      C4095   1.485       .  S
C4090      C4091   1.407       .  A
C4091      C4092   1.399       .  A
C4091      C4096   1.508       .  S
C4092      C4093   1.409       .  A
C4092      H4097   1.085       .  S
C4093      C4094   1.419       .  A
C4094      C4098   1.506       .  S
C4095      C4100   1.409       .  A
C4095      C4104   1.402       .  A
C4096      H4112   1.110       .  S
C4096      H4113   1.110       .  S
C4096      H4114   1.111       .  S
C4098      H4109   1.111       .  S
C4098      H4110   1.111       .  S
C4098      H4111   1.110       .  S
C4100      C4101   1.405       .  A
C4100      C4105   1.506       .  S
C4101      C4102   1.407       .  A
C4101      H4106   1.085       .  S
C4102      C4103   1.418       .  A
C4103      C4104   1.406       .  A
C4103      C4107   1.509       .  S
C4104      H4108   1.085       .  S
C4105      H4115   1.111       .  S
C4105      H4116   1.110       .  S
C4105      H4117   1.110       .  S
C4107      H4118   1.110       .  S
C4107      H4119   1.106       .  S
C4107      H4120   1.110       .  S
C4121      C4122   1.398       .  A
C4121      C4126   1.405       .  A
C4121      H4131   1.084       .  S
C4122      C4127   1.489       .  S
C4122      C4123   1.411       .  A
C4123      C4124   1.407       .  A
C4123      C4128   1.507       .  S
C4124      C4125   1.409       .  A
C4124      H4129   1.083       .  S
C4125      C4126   1.427       .  A
C4126      C4130   1.509       .  S
C4127      C4132   1.413       .  A
C4127      C4136   1.405       .  A
C4128      H4144   1.110       .  S
C4128      H4145   1.110       .  S
C4128      H4146   1.111       .  S
C4130      H4141   1.110       .  S
C4130      H4142   1.111       .  S
C4130      H4143   1.110       .  S
C4132      C4133   1.401       .  A
C4132      C4137   1.509       .  S
C4133      C4134   1.403       .  A
C4133      H4138   1.085       .  S
C4134      C4135   1.418       .  A
C4135      C4136   1.410       .  A
C4135      C4139   1.507       .  S
C4136      H4140   1.084       .  S
C4137      H4147   1.111       .  S
C4137      H4148   1.109       .  S
C4137      H4149   1.110       .  S
C4139      H4150   1.110       .  S
C4139      H4151   1.106       .  S
C4139      H4152   1.111       .  S
C4153      C4154   1.397       .  A
C4153      C4158   1.398       .  A
C4153      H4163   1.085       .  S
C4154      C4159   1.481       .  S
C4154      C4155   1.412       .  A
C4155      C4156   1.409       .  A
C4155      C4160   1.506       .  S
C4156      C4157   1.406       .  A
C4156      H4161   1.083       .  S
C4157      C4158   1.420       .  A
C4158      C4162   1.510       .  S
C4159      C4164   1.414       .  A
C4159      C4168   1.403       .  A
C4160      H4176   1.110       .  S
C4160      H4177   1.107       .  S
C4160      H4178   1.111       .  S
C4162      H4173   1.108       .  S
C4162      H4174   1.111       .  S
C4162      H4175   1.111       .  S
C4164      C4165   1.402       .  A
C4164      C4169   1.510       .  S
C4165      C4166   1.402       .  A
C4165      H4170   1.085       .  S
C4166      C4167   1.414       .  A
C4167      C4168   1.404       .  A
C4167      C4171   1.507       .  S
C4168      H4172   1.084       .  S
C4169      H4179   1.111       .  S
C4169      H4180   1.110       .  S
C4169      H4181   1.107       .  S
C4171      H4182   1.110       .  S
C4171      H4183   1.108       .  S
C4171      H4184   1.110       .  S
C4185      C4186   1.395       .  A
C4185      C4190   1.398       .  A
C4185      H4195   1.085       .  S
C4186      C4191   1.476       .  S
C4186      C4187   1.408       .  A
C4187      C4188   1.406       .  A
C4187      C4192   1.505       .  S
C4188      C4189   1.410       .  A
C4188      H4193   1.084       .  S
C4189      C4190   1.425       .  A
C4190      C4194   1.510       .  S
C4191      C4196   1.408       .  A
C4191      C4200   1.399       .  A
C4192      H4208   1.110       .  S
C4192      H4209   1.110       .  S
C4192      H4210   1.111       .  S
C4194      H4205   1.111       .  S
C4194      H4206   1.110       .  S
C4194      H4207   1.108       .  S
C4196      C4197   1.401       .  A
C4196      C4201   1.507       .  S
C4197      C4198   1.407       .  A
C4197      H4202   1.084       .  S
C4198      C4199   1.422       .  A
C4199      C4200   1.404       .  A
C4199      C4203   1.509       .  S
C4200      H4204   1.084       .  S
C4201      H4211   1.111       .  S
C4201      H4212   1.110       .  S
C4201      H4213   1.110       .  S
C4203      H4214   1.111       .  S
C4203      H4215   1.101       .  S
C4203      H4216   1.110       .  S
C4217      C4218   1.401       .  A
C4217      C4222   1.403       .  A
C4217      H4227   1.084       .  S
C4218      C4223   1.484       .  S
C4218      C4219   1.412       .  A
C4219      C4220   1.408       .  A
C4219      C4224   1.506       .  S
C4220      C4221   1.405       .  A
C4220      H4225   1.084       .  S
C4221      C4222   1.416       .  A
C4222      C4226   1.509       .  S
C4223      C4228   1.412       .  A
C4223      C4232   1.402       .  A
C4224      H4240   1.110       .  S
C4224      H4241   1.109       .  S
C4224      H4242   1.111       .  S
C4226      H4237   1.106       .  S
C4226      H4238   1.111       .  S
C4226      H4239   1.111       .  S
C4228      C4229   1.405       .  A
C4228      C4233   1.507       .  S
C4229      C4230   1.402       .  A
C4229      H4234   1.083       .  S
C4230      C4231   1.415       .  A
C4231      C4232   1.404       .  A
C4231      C4235   1.508       .  S
C4232      H4236   1.084       .  S
C4233      H4243   1.111       .  S
C4233      H4244   1.110       .  S
C4233      H4245   1.108       .  S
C4235      H4246   1.110       .  S
C4235      H4247   1.108       .  S
C4235      H4248   1.111       .  S
