geometry optimzed in LAMMPS
_audit_creation_date              2020-12-01 
_audit_creation_method            'lammps2cif' 
_symmetry_space_group_name_H-M    'P1' 
_symmetry_Int_Tables_number       1 
_symmetry_cell_setting            triclinic 
loop_ 
_symmetry_equiv_pos_as_xyz 
  x,y,z 
_cell_length_a                    41.59289157 
_cell_length_b                    41.66393124420928 
_cell_length_c                    32.21325893975441 
_cell_angle_alpha                 89.9344323885991 
_cell_angle_beta                  89.95244141146082 
_cell_angle_gamma                 89.82993914918951 
loop_ 
_atom_site_label 
_atom_site_type_symbol 
_atom_site_fract_x 
_atom_site_fract_y 
_atom_site_fract_z 
_atom_site_charge 
O1          O  0.03585951  0.48031921  0.73256103    -0.82300
C2          C  0.08047626  0.07284492  0.63010199     0.97100
O3          O  0.08859442  0.04499846  0.64199765    -0.71400
O4          O  0.08710835  0.99707458  0.69452914    -0.75000
Al5        Al  0.06169821  0.00855054  0.64863812     1.49000
C6          C  0.09037510  0.00688974  0.73111331     0.92300
O7          O  0.01721513  0.06407210  0.74980356    -0.81200
O8          O  0.47160842  0.05225522  0.67528515    -0.74800
Al9        Al  0.02489603  0.02145804  0.72987326     1.90100
O10         O  0.52129567  0.09378947  0.69353409    -0.73900
O11         O  0.50091342  0.03788188  0.60571857    -0.73700
O12         O  0.05089775  0.08014315  0.62580115    -0.79400
O13         O  0.04419147  0.51734544  0.60455428    -0.77600
O14         O  0.03274265  0.03153018  0.67680761    -1.13700
O15         O  0.04297675  0.47394113  0.66558937    -0.72900
C16         C  0.03720091  0.46239731  0.70119962     0.97800
C17         C  0.01722065  0.09115381  0.73253756     0.94200
Al18       Al  0.01212509  0.06364319  0.65160329     1.55600
O19         O  0.06926105  0.02518133  0.74680004    -0.77500
C20         C  0.01786404  0.02289309  0.58120404     0.98400
C21         C  0.46273033  0.03040776  0.70017764     0.93300
O22         O  0.48274943  0.01500619  0.72170023    -0.82800
O23         O  0.21179461  0.27640220  0.72563238    -0.82300
C24         C  0.17398123  0.17580617  0.63292934     0.97100
O25         O  0.16279501  0.20289200  0.64381861    -0.71400
O26         O  0.15736949  0.25129746  0.69711453    -0.75000
Al27       Al  0.18524204  0.24184589  0.65131489     1.49000
C28         C  0.15501531  0.23988374  0.73326478     0.92300
O29         O  0.23135025  0.19067081  0.75441267    -0.81200
O30         O  0.28059369  0.21008852  0.67870968    -0.74800
Al31       Al  0.22040740  0.23189717  0.73399680     1.90100
O32         O  0.23699239  0.16174017  0.69858584    -0.73900
O33         O  0.25041976  0.21770355  0.60814123    -0.73700
O34         O  0.20428781  0.17093520  0.63074068    -0.79400
O35         O  0.20355447  0.23850984  0.59717482    -0.77600
O36         O  0.21581486  0.22174523  0.68045015    -1.13700
O37         O  0.20666025  0.28234601  0.65777117    -0.72900
C38         C  0.21254277  0.29381134  0.69343425     0.97800
C39         C  0.23603871  0.16409118  0.73736889     0.94200
Al40       Al  0.24089951  0.19261475  0.65606884     1.55600
O41         O  0.17698441  0.22231923  0.74755285    -0.77500
C42         C  0.23117472  0.23171909  0.58423020     0.98400
C43         C  0.28564853  0.23170494  0.70574310     0.93300
O44         O  0.26301830  0.24256192  0.72730982    -0.82800
O45         O  0.23901172  0.25651599  0.27503699    -0.82300
C46         C  0.32645954  0.32400736  0.37279247     0.97100
O47         O  0.29611466  0.32787277  0.37512160    -0.71400
O48         O  0.26516085  0.33945705  0.30771851    -0.75000
Al49       Al  0.26048175  0.30687759  0.34718620     1.49000
C50         C  0.26226795  0.33880809  0.26904090     0.92300
O51         O  0.32161588  0.28611082  0.25245578    -0.81200
O52         O  0.29784229  0.21780621  0.33501184    -0.74800
Al53       Al  0.28009846  0.27174538  0.26631832     1.90100
O54         O  0.34536667  0.25644335  0.30005725    -0.73900
O55         O  0.29750000  0.25658637  0.40102621    -0.73700
O56         O  0.33824677  0.29762430  0.36055831    -0.79400
O57         O  0.25107006  0.27936920  0.39237557    -0.77600
O58         O  0.28575892  0.27944487  0.32050218    -1.13700
O59         O  0.22120735  0.29022452  0.32234949    -0.72900
C60         C  0.21633726  0.26778759  0.29629914     0.97800
C61         C  0.34603009  0.27160512  0.26598814     0.94200
Al62       Al  0.31713934  0.25876603  0.34716227     1.55600
O63         O  0.26412983  0.31272236  0.24994055    -0.77500
C64         C  0.26997535  0.26341539  0.41466621     0.98400
C65         C  0.29286107  0.20857997  0.29810871     0.93300
O66         O  0.29383417  0.22830877  0.26842603    -0.82800
O67         O  0.01481502  0.49657500  0.28716744    -0.82300
C68         C  0.41828261  0.42881514  0.37683524     0.97100
O69         O  0.44829145  0.42442096  0.38269178    -0.71400
O70         O  0.48096830  0.41220155  0.31597594    -0.75000
Al71       Al  0.48597722  0.44394848  0.35677872     1.49000
C72         C  0.48858144  0.41377598  0.27833764     0.92300
O73         O  0.42968782  0.47071526  0.25858730    -0.81200
O74         O  0.46067500  0.03364278  0.33373397    -0.74800
Al75       Al  0.47183285  0.48222838  0.27654671     1.90100
O76         O  0.41145891  0.00039139  0.29974550    -0.73900
O77         O  0.45691985  0.99636932  0.39905796    -0.73700
O78         O  0.40805868  0.45548221  0.36332489    -0.79400
O79         O  0.99737174  0.47471489  0.40148548    -0.77600
O80         O  0.46319664  0.47308607  0.32953542    -1.13700
O81         O  0.02857947  0.46056705  0.33389643    -0.72900
C82         C  0.03584036  0.48322108  0.30929704     0.97800
C83         C  0.40585005  0.48704842  0.27074979     0.94200
Al84       Al  0.43918454  0.99394570  0.34546261     1.55600
O85         O  0.48707539  0.44031481  0.25965679    -0.77500
C86         C  0.47591657  0.48711107  0.42426140     0.98400
C87         C  0.46872463  0.04225221  0.29747275     0.93300
O88         O  0.47022371  0.02239940  0.26794344    -0.82800
O89         O  0.48580402  0.23694638  0.76764202    -0.82300
C90         C  0.42530092  0.32857590  0.86359281     0.97100
O91         O  0.41999727  0.29842192  0.86704751    -0.71400
O92         O  0.41042666  0.26269563  0.80185059    -0.75000
Al93       Al  0.44163384  0.26072980  0.84349007     1.49000
C94         C  0.41051599  0.26694087  0.76335560     0.92300
O95         O  0.47300368  0.32487044  0.74886306    -0.81200
O96         O  0.03004399  0.29076494  0.84472740    -0.74800
Al97       Al  0.47865281  0.28057048  0.76278772     1.90100
O98         O  0.00180168  0.34122717  0.80717904    -0.73900
O99         O  0.98658876  0.29656856  0.90563164    -0.73700
O100        O  0.45276819  0.33890631  0.85266753    -0.79400
O101        O  0.46716162  0.25242234  0.89132955    -0.77600
O102        O  0.47011762  0.28526376  0.81705251    -1.13700
O103        O  0.45931033  0.22067450  0.82262153    -0.72900
C104        C  0.47785140  0.21499112  0.79218593     0.97800
C105        C  0.49147223  0.34555123  0.76402314     0.95800
Al106      Al  0.49126591  0.31538948  0.84535097     1.55600
O107        O  0.43584506  0.27408211  0.74442032    -0.77500
C108        C  0.48186866  0.27190675  0.91385246     0.98400
C109        C  0.04098212  0.28308744  0.80923576     0.93300
O110        O  0.02362730  0.28369033  0.77689429    -0.82800
O111        O  0.27669769  0.02650056  0.77329194    -0.82300
C112        C  0.32272125  0.42433361  0.86871803     0.97100
O113        O  0.32967085  0.45431256  0.86945159    -0.71400
O114        O  0.33832142  0.49688854  0.80836011    -0.75000
Al115      Al  0.31140042  0.99733459  0.84670469     1.49000
C116        C  0.34186850  0.48757153  0.77171375     0.92300
O117        O  0.27730156  0.42655721  0.75563511    -0.81200
O118        O  0.21764891  0.46348751  0.83801746    -0.74800
Al119      Al  0.27590293  0.47105247  0.76798076     1.90100
O120        O  0.24597701  0.41139253  0.80519386    -0.73900
O121        O  0.25490415  0.45629252  0.90470367    -0.73700
O122        O  0.29401295  0.41456437  0.86190428    -0.79400
O123        O  0.29508466  0.99291399  0.90194995    -0.77600
O124        O  0.27986108  0.46776226  0.82302480    -1.13700
O125        O  0.28468397  0.03509864  0.84007319    -0.72900
C126        C  0.27426163  0.04429333  0.80486867     0.97800
C127        C  0.25693476  0.40733947  0.76938356     0.94200
Al128      Al  0.25580130  0.43909979  0.85005325     1.55600
O129        O  0.32053898  0.47099997  0.75462786    -0.77500
C130        C  0.26544622  0.48118433  0.92120942     0.98400
C131        C  0.21046785  0.47443277  0.80221086     0.93300
O132        O  0.23007587  0.47273256  0.77195162    -0.82800
O133        O  0.48482150  0.23334824  0.22963944    -0.82300
C134        C  0.07304856  0.17529264  0.13805045     0.97100
O135        O  0.04526899  0.16656431  0.15014524    -0.71400
O136        O  0.99441729  0.16729629  0.20108305    -0.75000
Al137      Al  0.00835690  0.19292575  0.15592572     1.49000
C138        C  0.00461496  0.16297705  0.23724862     0.92300
O139        O  0.06619222  0.22897894  0.25629548    -0.81200
O140        O  0.04681236  0.28606972  0.17877207    -0.74800
Al141      Al  0.02313885  0.22702132  0.23821490     1.90100
O142        O  0.09233333  0.24033248  0.19915568    -0.73900
O143        O  0.03516649  0.25458585  0.11020506    -0.73700
O144        O  0.07989883  0.20514962  0.13372483    -0.79400
O145        O  0.50768059  0.21711782  0.09941492    -0.77600
O146        O  0.03131526  0.22179674  0.18417087    -1.13700
O147        O  0.47145108  0.22089181  0.16498533    -0.72900
C148        C  0.46486584  0.23331131  0.19996639     0.97800
C149        C  0.09184308  0.23523586  0.23755455     0.94200
Al150      Al  0.06104634  0.24449621  0.15753186     1.55600
O151        O  0.02454284  0.18236715  0.25203013    -0.77500
C152        C  0.02041830  0.23545446  0.08714242     0.98400
C153        C  0.03080230  0.29309336  0.21105284     0.93300
O154        O  0.02065331  0.27148098  0.23480922    -0.82800
O155        O  0.26857728  0.01287498  0.22069159    -0.82300
C156        C  0.17142598  0.07535796  0.13278617     0.97100
O157        O  0.20114130  0.08152284  0.12820080    -0.71400
O158        O  0.23439419  0.09473919  0.19366177    -0.75000
Al159      Al  0.23942656  0.06309372  0.15268009     1.49000
C160        C  0.24197872  0.09259618  0.23117554     0.92300
O161        O  0.18364706  0.03497745  0.25065348    -0.81200
O162        O  0.20960684  0.46828530  0.17193495    -0.74800
Al163      Al  0.22629121  0.02458020  0.23331041     1.90100
O164        O  0.16137837  0.00393114  0.20351708    -0.73900
O165        O  0.20507735  0.01032999  0.09967639    -0.73700
O166        O  0.16237871  0.04766031  0.14427585    -0.79400
O167        O  0.24927012  0.03722956  0.10618109    -0.77600
O168        O  0.21777894  0.03293705  0.18005214    -1.13700
O169        O  0.28084446  0.04966160  0.17396563    -0.72900
C170        C  0.28890118  0.02713217  0.19842956     0.97800
C171        C  0.16032004  0.01812946  0.23820134     0.94200
Al172      Al  0.18737034  0.01000315  0.15478088     1.55600
O173        O  0.24017058  0.06620985  0.24970983    -0.77500
C174        C  0.23157226  0.01938759  0.08493369     0.98400
C175        C  0.21770153  0.46000487  0.20838996     0.93300
O176        O  0.21291304  0.47887284  0.23823542    -0.82800
C177        C  0.09817694  0.15001678  0.13051451    -0.06000
C178        C  0.13100004  0.15815780  0.13016974    -0.33400
C179        C  0.15512031  0.13436425  0.12858413     0.35900
C180        C  0.14683215  0.10142348  0.12727702    -0.06300
C181        C  0.11404615  0.09345097  0.12565707    -0.33300
C182        C  0.08998690  0.11715587  0.12735525     0.35800
H183        H  0.13813296  0.18304729  0.13300529     0.16100
O184        O  0.18664834  0.14366229  0.13131934    -0.60800
H185        H  0.10683434  0.06850511  0.12440143     0.16100
O186        O  0.05843073  0.10772156  0.12618949    -0.60900
H187        H  0.05327504  0.10085938  0.15493100     0.43100
H188        H  0.19368715  0.14703327  0.10222688     0.43100
C189        C  0.25559029  0.49054618  0.96432268    -0.06000
C190        C  0.27924729  0.01126006  0.98375781    -0.33400
C191        C  0.27087526  0.02017822  0.02435200     0.35900
C192        C  0.24169456  0.00950817  0.04219770    -0.06300
C193        C  0.21911178  0.48723671  0.02392935    -0.33300
C194        C  0.22736187  0.47848935  0.98307453     0.35800
H195        H  0.30177526  0.01988494  0.97112714     0.16100
O196        O  0.29172672  0.03913466  0.04629041    -0.60800
H197        H  0.19732880  0.47749233  0.03733170     0.16100
O198        O  0.20733808  0.45833347  0.96167961    -0.60900
H199        H  0.19237430  0.47267821  0.94641835     0.43100
H200        H  0.28598153  0.06149643  0.03866539     0.43100
C201        C  0.49190126  0.26339679  0.95675952    -0.06000
C202        C  0.00500087  0.28309318  0.98757543    -0.33400
C203        C  0.01508343  0.27558309  0.02801114     0.35900
C204        C  0.01055183  0.24440919  0.04405839    -0.06300
C205        C  0.48768831  0.23056676  0.01900445    -0.33300
C206        C  0.47785915  0.23764813  0.97845724     0.35800
H207        H  0.00869017  0.30732402  0.97635157     0.16100
O208        O  0.02864530  0.29923348  0.05177683    -0.60800
H209        H  0.47620847  0.21073692  0.03489687     0.16100
O210        O  0.45368443  0.21988348  0.96099647    -0.60900
H211        H  0.46451176  0.20084212  0.94884920     0.43100
H212        H  0.05175958  0.29919564  0.04419291     0.43100
C213        C  0.39897620  0.35264802  0.87057169    -0.06000
C214        C  0.40603619  0.38554496  0.86666853    -0.33400
C215        C  0.38180604  0.40897989  0.86746217     0.35900
C216        C  0.34927907  0.40015594  0.87308201    -0.06300
C217        C  0.34222767  0.36733685  0.87840754    -0.33300
C218        C  0.36660305  0.34378200  0.87729870     0.35800
H219        H  0.43051835  0.39333594  0.86130447     0.16100
O220        O  0.39031352  0.44036103  0.86079817    -0.60800
H221        H  0.31753917  0.35970620  0.88235406     0.16100
O222        O  0.35813570  0.31212130  0.88082850    -0.60900
H223        H  0.35912335  0.30738352  0.91097488     0.43100
H224        H  0.38994853  0.44318601  0.83021242     0.43100
C225        C  0.47544502  0.07578830  0.28693757    -0.06000
C226        C  0.46017137  0.08806149  0.25171784    -0.33400
C227        C  0.47056927  0.11630640  0.23324712     0.35900
C228        C  0.49690423  0.13325203  0.25009469    -0.06300
C229        C  0.00954267  0.12145834  0.29397359    -0.33300
C230        C  0.99858697  0.09312456  0.31312239     0.35800
H231        H  0.44086118  0.07478376  0.23716046     0.16100
O232        O  0.45463648  0.12703436  0.19857574    -0.60800
H233        H  0.03275164  0.13110926  0.30257477     0.16100
O234        O  0.01780350  0.07778888  0.34151597    -0.60900
H235        H  0.00804207  0.08257683  0.36891817     0.43100
H236        H  0.46399354  0.11474489  0.17510660     0.43100
C237        C  0.00143953  0.38513850  0.25923842    -0.06000
C238        C  0.00126823  0.38028029  0.21585444    -0.33400
C239        C  0.01246491  0.35106693  0.19850202     0.35900
C240        C  0.02429762  0.32655850  0.22463960    -0.06300
C241        C  0.52776052  0.33250833  0.26458043    -0.33300
C242        C  0.51597956  0.36041481  0.28256185     0.35800
H243        H  0.99169165  0.39870205  0.19555476     0.16100
O244        O  0.01065686  0.34636503  0.15646249    -0.60800
H245        H  0.53778886  0.31443549  0.28507420     0.16100
O246        O  0.51886108  0.36380282  0.32477048    -0.60900
H247        H  0.53906400  0.37597395  0.32893692     0.43100
H248        H  0.98937376  0.33634711  0.15174386     0.43100
C249        C  0.06945299  0.49357414  0.30367650    -0.06000
C250        C  0.09399501  0.47052565  0.30195191    -0.33400
C251        C  0.12418646  0.47859300  0.28587099     0.35900
C252        C  0.13201274  0.01274238  0.26438635    -0.06300
C253        C  0.10650419  0.03448343  0.26252823    -0.33300
C254        C  0.07607141  0.02573917  0.27706302     0.35800
H255        H  0.08905156  0.44574647  0.30991693     0.16100
O256        O  0.14701471  0.45504676  0.28113483    -0.60800
H257        H  0.10956663  0.05738662  0.24703636     0.16100
O258        O  0.05117145  0.04715073  0.27273645    -0.60900
H259        H  0.04515157  0.04643285  0.24295670     0.43100
H260        H  0.15863486  0.45430974  0.30798616     0.43100
C261        C  0.32268595  0.01823410  0.20433251    -0.06000
C262        C  0.33148398  0.98560499  0.20363345    -0.33400
C263        C  0.35537004  0.47096633  0.23420845     0.35900
C264        C  0.38127254  0.99804437  0.23890596    -0.06300
C265        C  0.37329488  0.03079883  0.23728912    -0.33300
C266        C  0.34428836  0.04100096  0.21995763     0.35800
H267        H  0.31471973  0.96783591  0.19218575     0.16100
O268        O  0.35973195  0.43956568  0.24575004    -0.60800
H269        H  0.38891352  0.04841416  0.25149251     0.16100
O270        O  0.33606853  0.07288631  0.22176179    -0.60900
H271        H  0.32573163  0.07582057  0.24926858     0.43100
H272        H  0.36997041  0.42912826  0.22143631     0.43100
C273        C  0.34883322  0.35119218  0.38179394    -0.06000
C274        C  0.38174416  0.34499921  0.38842791    -0.33400
C275        C  0.40445237  0.36995838  0.38931188     0.35900
C276        C  0.39462548  0.40215672  0.38349710    -0.06300
C277        C  0.36146137  0.40840344  0.37906694    -0.33300
C278        C  0.33878083  0.38347685  0.37836559     0.35800
H279        H  0.39021019  0.32048063  0.39131007     0.16100
O280        O  0.43631645  0.36229957  0.39419420    -0.60800
H281        H  0.35300185  0.43275413  0.37437322     0.16100
O282        O  0.30718039  0.39096741  0.37093868    -0.60900
H283        H  0.29766531  0.39491031  0.39870532     0.43100
H284        H  0.44422503  0.35723532  0.36587860     0.43100
C285        C  0.25569082  0.36919040  0.24715500    -0.06000
C286        C  0.26492834  0.39750476  0.26685368    -0.33400
C287        C  0.25362314  0.42699920  0.25330605     0.35900
C288        C  0.23318103  0.42898460  0.21829530    -0.06300
C289        C  0.22631424  0.40094729  0.19591791    -0.33300
C290        C  0.23742720  0.37097804  0.21025640     0.35800
H291        H  0.27981590  0.39676282  0.29442353     0.16100
O292        O  0.26245501  0.45378683  0.27522012    -0.60800
H293        H  0.21091336  0.40203033  0.16884911     0.16100
O294        O  0.22823053  0.34362691  0.18991760    -0.60900
H295        H  0.24460999  0.34044641  0.16790706     0.43100
H296        H  0.24880513  0.45375615  0.30049688     0.43100
C297        C  0.28485780  0.17521963  0.28734384    -0.06000
C298        C  0.29525896  0.16395380  0.24858156    -0.33400
C299        C  0.28129249  0.13709430  0.23055717     0.35900
C300        C  0.25681937  0.12041808  0.25158717    -0.06300
C301        C  0.24817720  0.12987779  0.29193130    -0.33300
C302        C  0.26190298  0.15742982  0.30978325     0.35800
H303        H  0.31318280  0.17712505  0.23106993     0.16100
O304        O  0.29206073  0.12703524  0.19241787    -0.60800
H305        H  0.22981186  0.11681211  0.30871889     0.16100
O306        O  0.25068362  0.16827940  0.34725916    -0.60900
H307        H  0.26481999  0.15810682  0.36829429     0.43100
H308        H  0.28055457  0.14063264  0.17192910     0.43100
C309        C  0.37475724  0.26907082  0.24050885    -0.06000
C310        C  0.37542026  0.24603863  0.20879149    -0.33400
C311        C  0.40478577  0.23542369  0.19257371     0.35900
C312        C  0.43356562  0.24839730  0.20798931    -0.06300
C313        C  0.43238324  0.27381511  0.23669057    -0.33300
C314        C  0.40318380  0.28392922  0.25331000     0.35800
H315        H  0.35341266  0.23425683  0.19931886     0.16100
O316        O  0.40516738  0.21057012  0.16468102    -0.60800
H317        H  0.45437091  0.28441915  0.24834868     0.16100
O318        O  0.40290897  0.30623028  0.28462181    -0.60900
H319        H  0.39708493  0.32680610  0.27103105     0.43100
H320        H  0.40590360  0.19077938  0.18181125     0.43100
C321        C  0.12195781  0.23827103  0.26045638    -0.06000
C322        C  0.14872640  0.22139557  0.24616462    -0.33400
C323        C  0.17936235  0.22906565  0.26022513     0.35900
C324        C  0.18373285  0.25503072  0.28815148    -0.06300
C325        C  0.15648155  0.27035838  0.30474063    -0.33300
C326        C  0.12561311  0.26191827  0.29123998     0.35800
H327        H  0.14599283  0.20309776  0.22251530     0.16100
O328        O  0.20493405  0.21226551  0.24418593    -0.60800
H329        H  0.15912310  0.29005147  0.32638688     0.16100
O330        O  0.09955982  0.27912974  0.30503048    -0.60900
H331        H  0.09291875  0.26845015  0.33117415     0.43100
H332        H  0.20725711  0.19313237  0.26228463     0.43100
C333        C  0.24078985  0.23971961  0.54066480    -0.06000
C334        C  0.27052883  0.22897588  0.52501376    -0.33400
C335        C  0.28018609  0.23593781  0.48416505     0.35900
C336        C  0.25995393  0.25389033  0.45756750    -0.06300
C337        C  0.23010107  0.26439414  0.47314943    -0.33300
C338        C  0.22047883  0.25751889  0.51395929     0.35800
H339        H  0.28655420  0.21506551  0.54454219     0.16100
O340        O  0.30942806  0.22480170  0.47065581    -0.60800
H341        H  0.21409476  0.27846353  0.45377963     0.16100
O342        O  0.19144102  0.26914594  0.52757004    -0.60900
H343        H  0.17536511  0.25304211  0.51862688     0.43100
H344        H  0.32517026  0.24130497  0.47937148     0.43100
C345        C  0.07462859  0.27432542  0.80291268    -0.06000
C346        C  0.08412175  0.24212587  0.80750838    -0.33400
C347        C  0.11122648  0.23036731  0.78627572     0.35900
C348        C  0.12853148  0.25099426  0.75987678    -0.06300
C349        C  0.12010940  0.28355347  0.75778897    -0.33300
C350        C  0.09365414  0.29531176  0.77940827     0.35800
H351        H  0.06898825  0.22555250  0.82452528     0.16100
O352        O  0.11905350  0.19842337  0.78913010    -0.60800
H353        H  0.13341364  0.29976412  0.73796300     0.16100
O354        O  0.08461786  0.32671407  0.77395102    -0.60900
H355        H  0.09278694  0.33810465  0.79879226     0.43100
H356        H  0.11139715  0.18860470  0.76291498     0.43100
C357        C  0.31825570  0.24452817  0.71446086    -0.06000
C358        C  0.34576570  0.23109896  0.69583599    -0.33400
C359        C  0.37665088  0.24019089  0.70900351     0.35900
C360        C  0.38007635  0.26279832  0.74116379    -0.06300
C361        C  0.35289780  0.27774002  0.75758277    -0.33300
C362        C  0.32231968  0.26931370  0.74423826     0.35800
H363        H  0.34338633  0.21252414  0.67255152     0.16100
O364        O  0.40314426  0.22542187  0.69221165    -0.60800
H365        H  0.35534049  0.29522344  0.78230247     0.16100
O366        O  0.29658936  0.28434052  0.76260412    -0.60900
H367        H  0.29313596  0.30418446  0.74619011     0.43100
H368        H  0.40648203  0.20579942  0.70914870     0.43100
C369        C  0.24126685  0.13518321  0.76265610    -0.06000
C370        C  0.22466156  0.10732132  0.75216931    -0.33400
C371        C  0.23304437  0.07799930  0.76994996     0.35900
C372        C  0.25918971  0.07593743  0.79784532    -0.06300
C373        C  0.27420403  0.10423713  0.81101173    -0.33300
C374        C  0.26531624  0.13391516  0.79351588     0.35800
H375        H  0.20593770  0.10806707  0.72877445     0.16100
O376        O  0.21707558  0.05096790  0.75736917    -0.60800
H377        H  0.29444461  0.10306510  0.83210862     0.16100
O378        O  0.28196877  0.16102740  0.80425075    -0.60900
H379        H  0.30001547  0.16231552  0.78417169     0.43100
H380        H  0.19612692  0.05170613  0.77201498     0.43100
C381        C  0.24386329  0.38131708  0.74323147    -0.06000
C382        C  0.26245706  0.36672199  0.71196094    -0.33400
C383        C  0.25067129  0.33986594  0.69045366     0.35900
C384        C  0.22001925  0.32772465  0.70010373    -0.06300
C385        C  0.20040193  0.34438697  0.72801446    -0.33300
C386        C  0.21198519  0.37090398  0.74950379     0.35800
H387        H  0.28671570  0.37491147  0.70595747     0.16100
O388        O  0.27050012  0.32369582  0.66357498    -0.60800
H389        H  0.17678655  0.33530194  0.73567721     0.16100
O390        O  0.19196949  0.38628629  0.77699263    -0.60900
H391        H  0.19227465  0.37293373  0.80250513     0.43100
H392        H  0.26338412  0.33032903  0.63546634     0.43100
C393        C  0.48610461  0.49867896  0.46612958    -0.06000
C394        C  0.01978766  0.98933057  0.47131954    -0.33400
C395        C  0.02990107  0.99906859  0.51069452     0.35900
C396        C  0.00809799  0.01413351  0.53825226    -0.06300
C397        C  0.47442229  0.51940604  0.53557523    -0.33300
C398        C  0.46385934  0.51002979  0.49594065     0.35800
H399        H  0.03700981  0.97746279  0.45123794     0.16100
O400        O  0.06126322  0.99349909  0.52178608    -0.60800
H401        H  0.45675174  0.52723942  0.55815074     0.16100
O402        O  0.43158731  0.51105235  0.48734532    -0.60900
H403        H  0.42757779  0.53301038  0.47657127     0.43100
H404        H  0.07308627  0.01303334  0.51311446     0.43100
C405        C  0.15102656  0.14905331  0.62476060    -0.06000
C406        C  0.16110335  0.11696168  0.62898106    -0.33400
C407        C  0.13881947  0.09162941  0.62835352     0.35900
C408        C  0.10556677  0.09803243  0.62349849    -0.06300
C409        C  0.09592583  0.12995619  0.61646991    -0.33300
C410        C  0.11813730  0.15517316  0.61700540     0.35800
H411        H  0.18617744  0.11150839  0.63486720     0.16100
O412        O  0.14979620  0.06094295  0.63468084    -0.60800
H413        H  0.07073336  0.13575441  0.61224653     0.16100
O414        O  0.10703177  0.18591360  0.61152132    -0.60900
H415        H  0.11139465  0.19101840  0.58197653     0.43100
H416        H  0.15383911  0.05224527  0.60650848     0.43100
C417        C  0.11878488  0.99500886  0.75447253    -0.06000
C418        C  0.13010687  0.01081771  0.79010696    -0.33400
C419        C  0.15930912  0.00135379  0.80853597     0.35900
C420        C  0.17932571  0.49050872  0.79400809    -0.06300
C421        C  0.17861440  0.51482968  0.76367017    -0.33300
C422        C  0.14955671  0.52752573  0.74956796     0.35800
H423        H  0.11733278  0.03147535  0.80222235     0.16100
O424        O  0.17155573  0.01880541  0.84089661    -0.60800
H425        H  0.20070979  0.52307891  0.74937634     0.16100
O426        O  0.14970639  0.54908283  0.71733140    -0.60900
H427        H  0.14926034  0.57052562  0.73064964     0.43100
H428        H  0.16536426  0.00678187  0.86624154     0.43100
C429        C  0.42845850  0.02297559  0.70635256    -0.06000
C430        C  0.40763648  0.04696244  0.72072535    -0.33400
C431        C  0.37764729  0.03884542  0.73743716     0.35900
C432        C  0.36791828  0.00641516  0.73910846    -0.06300
C433        C  0.38750964  0.98279656  0.72124070    -0.33300
C434        C  0.41780018  0.99087586  0.70533622     0.35800
H435        H  0.41554068  0.07169949  0.72176903     0.16100
O436        O  0.35874443  0.06258949  0.75416300    -0.60800
H437        H  0.38063606  0.45331847  0.71934214     0.16100
O438        O  0.43763419  0.96697971  0.69108349    -0.60900
H439        H  0.43437625  0.96662934  0.66059788     0.43100
H440        H  0.34283014  0.06791177  0.73228817     0.43100
C441        C  0.49107018  0.18255712  0.78348653    -0.06000
C442        C  0.47552797  0.15470774  0.79756129    -0.33400
C443        C  0.48541555  0.12429342  0.78340615     0.35900
C444        C  0.01169231  0.12083466  0.75655270    -0.06300
C445        C  0.02712357  0.14873987  0.74337047    -0.33300
C446        C  0.51842923  0.17927871  0.75754096     0.35800
H447        H  0.45462401  0.15658681  0.81750134     0.16100
O448        O  0.46829236  0.09763472  0.79492024    -0.60800
H449        H  0.04594406  0.14738841  0.72010663     0.16100
O450        O  0.03216100  0.20552011  0.74147165    -0.60900
H451        H  0.05529639  0.20319709  0.74805561     0.43100
H452        H  0.44916165  0.09747245  0.77658122     0.43100
C453        C  0.03170057  0.42806817  0.70906787    -0.06000
C454        C  0.00561750  0.41211477  0.69070755    -0.33400
C455        C  0.99269389  0.38431597  0.70929017     0.35900
C456        C  0.00587185  0.37257902  0.74674632    -0.06300
C457        C  0.03365980  0.38722653  0.76257682    -0.33300
C458        C  0.04655398  0.41446977  0.74410853     0.35800
H459        H  0.99374588  0.42253270  0.66395920     0.16100
O460        O  0.96649422  0.36982678  0.69169237    -0.60800
H461        H  0.54627537  0.37577757  0.77957725     0.16100
O462        O  0.07281151  0.42887379  0.76192446    -0.60900
H463        H  0.06470425  0.43900501  0.78776504     0.43100
H464        H  0.94761727  0.38181308  0.70245142     0.43100
O465        O  0.02906181  0.97684983  0.72153139    -0.82300
C466        C  0.07497006  0.58190546  0.63937359     0.97100
O467        O  0.08559396  0.55451682  0.64953519    -0.71400
O468        O  0.09020485  0.50930751  0.70576092    -0.75000
Al469      Al  0.06301705  0.51549429  0.65858079     1.49000
C470        C  0.09079998  0.52094048  0.74198963     0.92300
O471        O  0.00897075  0.56419435  0.75964216    -0.81200
O472        O  0.46933355  0.55347724  0.68314093    -0.74800
Al473      Al  0.02395463  0.52366276  0.73923383     1.90100
O474        O  0.51835716  0.59590229  0.70407851    -0.73900
O475        O  0.49938152  0.54293466  0.61252013    -0.73700
O476        O  0.04486482  0.58721477  0.63774587    -0.79400
O477        O  0.04460861  0.01377080  0.59466099    -0.77600
O478        O  0.03163843  0.53531670  0.68655526    -1.13700
O479        O  0.03667182  0.96983873  0.65432730    -0.72900
C480        C  0.02924205  0.95900011  0.68988204     0.97800
C481        C  0.00851444  0.59171522  0.74380509     0.94200
Al482      Al  0.00804068  0.56582934  0.66235904     1.55600
O483        O  0.06626025  0.53444881  0.75736798    -0.77500
C484        C  0.01725163  0.52606667  0.59087041     0.98400
C485        C  0.46134614  0.52883012  0.70400020     0.93300
O486        O  0.48198448  0.51210075  0.72258890    -0.82800
O487        O  0.22769030  0.77190356  0.72979942    -0.82300
C488        C  0.17120152  0.68333801  0.63368552     0.97100
O489        O  0.16416526  0.71201230  0.64424507    -0.71400
O490        O  0.16758338  0.75822180  0.70097750    -0.75000
Al491      Al  0.19228236  0.74765027  0.65387180     1.49000
C492        C  0.16338084  0.74586691  0.73609439     0.92300
O493        O  0.22967160  0.68261160  0.74871434    -0.81200
O494        O  0.28285952  0.70544576  0.66712323    -0.74800
Al495      Al  0.22733893  0.72652668  0.73364043     1.90100
O496        O  0.23948178  0.66013670  0.68930861    -0.73900
O497        O  0.24936627  0.71643300  0.60179765    -0.73700
O498        O  0.20050657  0.67462238  0.62905210    -0.79400
O499        O  0.20724688  0.74617011  0.59797871    -0.77600
O500        O  0.22045177  0.72163625  0.67896319    -1.13700
O501        O  0.21983407  0.78425787  0.66376106    -0.72900
C502        C  0.23067272  0.79122433  0.69967927     0.97800
C503        C  0.23676633  0.65829075  0.72783985     0.94200
Al504      Al  0.24095978  0.69186799  0.64937504     1.55600
O505        O  0.18291818  0.72512004  0.74908861    -0.77500
C506        C  0.23206399  0.73507207  0.58145075     0.98400
C507        C  0.29166979  0.72020423  0.69946565     0.93300
O508        O  0.27198532  0.72875268  0.72700745    -0.82800
O509        O  0.23434865  0.75789615  0.27902234    -0.82300
C510        C  0.32789739  0.82645421  0.36621193     0.97100
O511        O  0.29782913  0.83180358  0.36952515    -0.71400
O512        O  0.26509186  0.84205376  0.30295125    -0.75000
Al513      Al  0.26037507  0.81114403  0.34473353     1.49000
C514        C  0.25925022  0.83981048  0.26493859     0.92300
O515        O  0.31579519  0.78490092  0.24695628    -0.81200
O516        O  0.29507862  0.71983002  0.33508535    -0.74800
Al517      Al  0.27485747  0.77201534  0.26534524     1.90100
O518        O  0.34140621  0.75713724  0.29509397    -0.73900
O519        O  0.29711672  0.76033643  0.39847865    -0.73700
O520        O  0.33795760  0.79927876  0.35452401    -0.79400
O521        O  0.25163406  0.78546879  0.39159960    -0.77600
O522        O  0.28347015  0.78166047  0.31829178    -1.13700
O523        O  0.21929180  0.79515446  0.32338771    -0.72900
C524        C  0.21287050  0.77104055  0.30052635     0.97800
C525        C  0.34077621  0.77110932  0.26012553     0.94200
Al526      Al  0.31526745  0.76086438  0.34388690     1.55600
O527        O  0.25847464  0.81279728  0.24787507    -0.77500
C528        C  0.27019451  0.76842974  0.41296854     0.98400
C529        C  0.28894228  0.70941767  0.29910483     0.93300
O530        O  0.28802402  0.72839417  0.26861215    -0.82800
O531        O  0.01636607  0.99441649  0.27733662    -0.82300
C532        C  0.42559866  0.92663920  0.36496442     0.97100
O533        O  0.45548489  0.91922137  0.36340341    -0.71400
O534        O  0.49971589  0.91254677  0.30424972    -0.75000
Al535      Al  0.49371478  0.94265422  0.34666978     1.49000
C536        C  0.49432620  0.91116955  0.26622678     0.92300
O537        O  0.43105851  0.97110106  0.24984265    -0.81200
O538        O  0.45261270  0.53438203  0.34779645    -0.74800
Al539      Al  0.47501962  0.97731949  0.26422901     1.90100
O540        O  0.40590367  0.50037571  0.30599789    -0.73900
O541        O  0.44817113  0.49295853  0.41058748    -0.73700
O542        O  0.41613764  0.95541496  0.35868886    -0.79400
O543        O  0.99793478  0.96840574  0.39358183    -0.77600
O544        O  0.46947061  0.97102821  0.31889255    -1.13700
O545        O  0.03130689  0.96048635  0.32607609    -0.72900
C546        C  0.03778999  0.98271426  0.30032009     0.97800
C547        C  0.40904740  0.98855163  0.26413964     0.94200
Al548      Al  0.43130774  0.49396123  0.35500563     1.55600
O549        O  0.48135715  0.93418918  0.24784842    -0.77500
C550        C  0.48085460  0.98450802  0.41642803     0.98400
C551        C  0.45946885  0.54505451  0.31207879     0.93300
O552        O  0.46052709  0.52661710  0.28091016    -0.82800
O553        O  0.47963709  0.73401197  0.77695439    -0.82300
C554        C  0.42639304  0.82935818  0.86957716     0.97100
O555        O  0.41706523  0.80021956  0.86631221    -0.71400
O556        O  0.41115230  0.75437384  0.80907836    -0.75000
Al557      Al  0.44011394  0.76119395  0.85262517     1.49000
C558        C  0.40931754  0.76091619  0.77135808     0.92300
O559        O  0.47201595  0.82275018  0.75570619    -0.81200
O560        O  0.03484592  0.79287024  0.84358705    -0.74800
Al561      Al  0.47537709  0.77868175  0.77042558     1.90100
O562        O  0.00322186  0.84185971  0.80383786    -0.73900
O563        O  0.99433478  0.79973589  0.90704953    -0.73700
O564        O  0.45603709  0.83680486  0.86685589    -0.79400
O565        O  0.45934315  0.75854884  0.90549776    -0.77600
O566        O  0.46966977  0.78417419  0.82523976    -1.13700
O567        O  0.46154471  0.72136086  0.83962354    -0.72900
C568        C  0.47596930  0.71395673  0.80609403     0.97800
C569        C  0.48923144  0.84426192  0.77116850     0.95800
Al570      Al  0.49378224  0.81302377  0.85228027     1.55600
O571        O  0.43167445  0.77568568  0.75400293    -0.77500
C572        C  0.48204453  0.77207143  0.92348974     0.98400
C573        C  0.04482964  0.78604573  0.80751425     0.93300
O574        O  0.02583109  0.78557759  0.77685685    -0.82800
O575        O  0.27428676  0.51549138  0.76974827    -0.82300
C576        C  0.33161845  0.93289889  0.86580795     0.97100
O577        O  0.33930948  0.96096163  0.85381891    -0.71400
O578        O  0.33642328  0.00928167  0.79946472    -0.75000
Al579      Al  0.30739134  0.49253309  0.85070394     1.49000
C580        C  0.33960436  0.99718644  0.76392958     0.92300
O581        O  0.26921977  0.93864037  0.74818611    -0.81200
O582        O  0.22098897  0.95133535  0.82637254    -0.74800
Al583      Al  0.27450587  0.98145320  0.76669340     1.90100
O584        O  0.27034151  0.91025318  0.80498589    -0.73900
O585        O  0.25119465  0.96593075  0.89399325    -0.73700
O586        O  0.30227983  0.92548074  0.87122656    -0.79400
O587        O  0.28464075  0.49810178  0.90118020    -0.77600
O588        O  0.28270366  0.97300209  0.82005987    -1.13700
O589        O  0.28712127  0.53170656  0.83271435    -0.72900
C590        C  0.27718958  0.53745016  0.79623652     0.97800
C591        C  0.26910527  0.91191881  0.76606222     0.94200
Al592      Al  0.26300038  0.94110387  0.84687643     1.55600
O593        O  0.31865089  0.97819200  0.75014276    -0.77500
C594        C  0.26881749  0.98308109  0.91632176     0.98400
C595        C  0.21120207  0.97126709  0.79965308     0.93300
O596        O  0.23030485  0.98596548  0.77615717    -0.82800
O597        O  0.47398911  0.72303376  0.23014778    -0.82300
C598        C  0.07038059  0.67226964  0.14098108     0.97100
O599        O  0.04194683  0.66559704  0.15227821    -0.71400
O600        O  0.99353335  0.66965245  0.20490284    -0.75000
Al601      Al  0.00635128  0.69401352  0.15813815     1.49000
C602        C  0.00279403  0.66673320  0.24191761     0.92300
O603        O  0.06196673  0.73752199  0.25912347    -0.81200
O604        O  0.05310046  0.78372862  0.18073960    -0.74800
Al605      Al  0.01966779  0.73136911  0.23861406     1.90100
O606        O  0.09240673  0.73320179  0.20412026    -0.73900
O607        O  0.04012212  0.75343891  0.11211823    -0.73700
O608        O  0.07915686  0.70137766  0.13697932    -0.79400
O609        O  0.50988832  0.70721207  0.10306364    -0.77600
O610        O  0.03021007  0.72226346  0.18589334    -1.13700
O611        O  0.46755143  0.71803407  0.16271609    -0.72900
C612        C  0.45774528  0.72794331  0.19769529     0.97800
C613        C  0.08926709  0.73640545  0.24263650     0.94200
Al614      Al  0.06333843  0.74122138  0.16065907     1.55600
O615        O  0.02172356  0.68731114  0.25713577    -0.77500
C616        C  0.02270708  0.73623849  0.08953427     0.98400
C617        C  0.03113214  0.79390727  0.20460705     0.93300
O618        O  0.01509123  0.77514057  0.22701269    -0.82800
O619        O  0.26554989  0.51072478  0.22788206    -0.82300
C620        C  0.16828710  0.57212235  0.13887119     0.97100
O621        O  0.19791851  0.57938319  0.13572944    -0.71400
O622        O  0.23235578  0.59256080  0.20044833    -0.75000
Al623      Al  0.23669052  0.56093234  0.15917555     1.49000
C624        C  0.24020338  0.59067766  0.23788564     0.92300
O625        O  0.18078886  0.53399174  0.25676166    -0.81200
O626        O  0.21082590  0.97031881  0.16437429    -0.74800
Al627      Al  0.22347384  0.52300080  0.24020500     1.90100
O628        O  0.15920925  0.50155172  0.21052145    -0.73900
O629        O  0.20297660  0.50720084  0.10623443    -0.73700
O630        O  0.15985403  0.54416462  0.15000973    -0.79400
O631        O  0.24606077  0.53584107  0.11159873    -0.77600
O632        O  0.21523110  0.53087428  0.18664578    -1.13700
O633        O  0.27820883  0.54649469  0.17983042    -0.72900
C634        C  0.28597060  0.52396586  0.20465833     0.97800
C635        C  0.15786646  0.51629919  0.24491140     0.94200
Al636      Al  0.18530982  0.50725857  0.16149947     1.55600
O637        O  0.23806493  0.56446011  0.25667741    -0.77500
C638        C  0.22870833  0.51747772  0.09061200     0.98400
C639        C  0.21933207  0.96144190  0.20046496     0.93300
O640        O  0.21632158  0.98029621  0.23074543    -0.82800
C641        C  0.09434721  0.64583656  0.13422401    -0.06000
C642        C  0.12644893  0.65330919  0.12423417    -0.33400
C643        C  0.15046255  0.62949597  0.12313154     0.35900
C644        C  0.14286809  0.59719010  0.13228314    -0.06300
C645        C  0.11045229  0.58948878  0.13990815    -0.33300
C646        C  0.08647923  0.61326461  0.14114545     0.35800
H647        H  0.13335152  0.67798497  0.11861606     0.16100
O648        O  0.18151991  0.63853673  0.11507016    -0.60800
H649        H  0.10365123  0.56497557  0.14681002     0.16100
O650        O  0.05556618  0.60427383  0.15028238    -0.60900
H651        H  0.05457303  0.60327992  0.18103116     0.43100
H652        H  0.18422706  0.63579380  0.08469160     0.43100
C653        C  0.25904782  0.99174046  0.95960956    -0.06000
C654        C  0.27460639  0.51200519  0.98728598    -0.33400
C655        C  0.26631540  0.52090251  0.02804239     0.35900
C656        C  0.23838032  0.50831893  0.04722046    -0.06300
C657        C  0.22167942  0.98963582  0.01825668    -0.33300
C658        C  0.23001114  0.98084056  0.97752405     0.35800
H659        H  0.29631457  0.52181041  0.97373080     0.16100
O660        O  0.28605684  0.54171275  0.04884225    -0.60800
H661        H  0.19923520  0.98092107  0.03102105     0.16100
O662        O  0.20964833  0.96120772  0.95584628    -0.60900
H663        H  0.19394464  0.97585845  0.94242209     0.43100
H664        H  0.27807051  0.56345096  0.04154750     0.43100
C665        C  0.49151916  0.76258021  0.96644069    -0.06000
C666        C  0.01771972  0.78207101  0.98667187    -0.33400
C667        C  0.02705836  0.77362695  0.02716078     0.35900
C668        C  0.01402598  0.74611071  0.04642490    -0.06300
C669        C  0.48174459  0.73347419  0.03092310    -0.33300
C670        C  0.47201804  0.74229943  0.99089175     0.35800
H671        H  0.02798062  0.80339881  0.97276200     0.16100
O672        O  0.04867380  0.79271265  0.04759866    -0.60800
H673        H  0.46615688  0.71808688  0.04908460     0.16100
O674        O  0.44297006  0.73150332  0.97650417    -0.60900
H675        H  0.44732595  0.70967254  0.96557351     0.43100
H676        H  0.07012128  0.78395944  0.04019405     0.43100
C677        C  0.40228617  0.85595197  0.87387581    -0.06000
C678        C  0.41209656  0.88797843  0.86759274    -0.33400
C679        C  0.38976945  0.91333660  0.86595402     0.35900
C680        C  0.35666675  0.90735279  0.87166227    -0.06300
C681        C  0.34699686  0.87546211  0.87936382    -0.33300
C682        C  0.36925715  0.85004683  0.88030487     0.35800
H683        H  0.43720084  0.89343280  0.86216264     0.16100
O684        O  0.40069368  0.94374701  0.85790771    -0.60800
H685        H  0.32177227  0.86983891  0.88336202     0.16100
O686        O  0.35811184  0.81941627  0.88602783    -0.60900
H687        H  0.35928463  0.81566266  0.91639153     0.43100
H688        H  0.40210812  0.94519229  0.82721979     0.43100
C689        C  0.46559396  0.57918439  0.30437357    -0.06000
C690        C  0.44776532  0.59377181  0.27290630    -0.33400
C691        C  0.45876507  0.62138614  0.25336515     0.35900
C692        C  0.48845220  0.63513486  0.26518851    -0.06300
C693        C  0.00545783  0.62648761  0.30104299    -0.33300
C694        C  0.99438904  0.59789757  0.31970663     0.35800
H695        H  0.42609400  0.58255072  0.26154169     0.16100
O696        O  0.44037079  0.63443513  0.22219928    -0.60800
H697        H  0.02728996  0.63754043  0.31235809     0.16100
O698        O  0.01147977  0.58450527  0.35173813    -0.60900
H699        H  0.99920984  0.59002256  0.37716559     0.43100
H700        H  0.44442422  0.62079281  0.19750364     0.43100
C701        C  0.00363233  0.88755890  0.24066521    -0.06000
C702        C  0.98240550  0.86911615  0.21699620    -0.33400
C703        C  0.99245844  0.83954597  0.20076895     0.35900
C704        C  0.02392551  0.82827765  0.20841246    -0.06300
C705        C  0.54644800  0.84261445  0.22994489    -0.33300
C706        C  0.53724292  0.87235711  0.24625257     0.35800
H707        H  0.95764226  0.87671287  0.21319972     0.16100
O708        O  0.97076923  0.82080262  0.17993384    -0.60800
H709        H  0.57071348  0.83390596  0.23500285     0.16100
O710        O  0.55955260  0.89053501  0.26688777    -0.60900
H711        H  0.56689898  0.90670913  0.24638155     0.43100
H712        H  0.97628010  0.82326201  0.15014979     0.43100
C713        C  0.07093969  0.99484513  0.29430338    -0.06000
C714        C  0.09732797  0.97417040  0.29933000    -0.33400
C715        C  0.12767932  0.98284907  0.28407569     0.35900
C716        C  0.13014396  0.51008488  0.27187212    -0.06300
C717        C  0.10685537  0.53386839  0.27764573    -0.33300
C718        C  0.07649499  0.52575405  0.29317390     0.35800
H719        H  0.09394928  0.95034918  0.31210049     0.16100
O720        O  0.15233528  0.96094379  0.28544793    -0.60800
H721        H  0.11132952  0.55819309  0.26722672     0.16100
O722        O  0.05344903  0.54920559  0.29665822    -0.60900
H723        H  0.04555876  0.55301939  0.26801539     0.43100
H724        H  0.16424017  0.96591487  0.31129546     0.43100
C725        C  0.31953224  0.51341953  0.20949997    -0.06000
C726        C  0.32586045  0.48074042  0.21747554    -0.33400
C727        C  0.36090924  0.97545387  0.22033934     0.35900
C728        C  0.37880972  0.49405644  0.24303731    -0.06300
C729        C  0.37354769  0.52616219  0.23168009    -0.33300
C730        C  0.34411880  0.53600239  0.21503511     0.35800
H731        H  0.30710512  0.46306864  0.21324388     0.16100
O732        O  0.36800157  0.94332526  0.22206880    -0.60800
H733        H  0.39155080  0.54403984  0.23845457     0.16100
O734        O  0.33864070  0.56805758  0.20816580    -0.60900
H735        H  0.33085083  0.57663768  0.23508568     0.43100
H736        H  0.38024580  0.93882593  0.19629098     0.43100
C737        C  0.35213154  0.85249203  0.37354578    -0.06000
C738        C  0.38502219  0.84450365  0.37615875    -0.33400
C739        C  0.40906726  0.86817334  0.37539764     0.35900
C740        C  0.40075657  0.90100887  0.37207472    -0.06300
C741        C  0.36776753  0.90908016  0.37198652    -0.33300
C742        C  0.34371430  0.88535409  0.37288662     0.35800
H743        H  0.39237079  0.81954787  0.37722944     0.16100
O744        O  0.44064594  0.85866482  0.37686846    -0.60800
H745        H  0.36039118  0.93397121  0.36965655     0.16100
O746        O  0.31214481  0.89469120  0.37024731    -0.60900
H747        H  0.30485737  0.89701333  0.39940967     0.43100
H748        H  0.44632449  0.85295942  0.34787726     0.43100
C749        C  0.25278135  0.86947074  0.24136647    -0.06000
C750        C  0.26735292  0.89761291  0.25522485    -0.33400
C751        C  0.25770329  0.92732285  0.24016679     0.35900
C752        C  0.23339722  0.92958367  0.20962009    -0.06300
C753        C  0.22047475  0.90126020  0.19308321    -0.33300
C754        C  0.22998244  0.87116124  0.20895031     0.35800
H755        H  0.28535992  0.89676980  0.27953838     0.16100
O756        O  0.27174377  0.95419043  0.25658873    -0.60800
H757        H  0.20159328  0.90252394  0.16999428     0.16100
O758        O  0.21483025  0.84398857  0.19526235    -0.60900
H759        H  0.22731480  0.83696133  0.17064724     0.43100
H760        H  0.26154452  0.95723618  0.28416539     0.43100
C761        C  0.28224279  0.67536323  0.29029581    -0.06000
C762        C  0.29198068  0.66368341  0.25150030    -0.33400
C763        C  0.27869286  0.63588842  0.23510780     0.35900
C764        C  0.25542808  0.61870814  0.25770731    -0.06300
C765        C  0.24803264  0.62833572  0.29847695    -0.33300
C766        C  0.26128834  0.65673982  0.31485572     0.35800
H767        H  0.30871328  0.67726132  0.23259268     0.16100
O768        O  0.28876519  0.62557050  0.19677826    -0.60800
H769        H  0.23086841  0.61479505  0.31669403     0.16100
O770        O  0.25142376  0.66743737  0.35304276    -0.60900
H771        H  0.26861475  0.66067606  0.37251763     0.43100
H772        H  0.27652727  0.63868958  0.17647317     0.43100
C773        C  0.36938428  0.76904933  0.23433551    -0.06000
C774        C  0.36951339  0.74845374  0.19981489    -0.33400
C775        C  0.39869797  0.73658897  0.18414467     0.35900
C776        C  0.42760682  0.74576608  0.20320226    -0.06300
C777        C  0.42714530  0.76920275  0.23458624    -0.33300
C778        C  0.39832018  0.78074694  0.25025767     0.35800
H779        H  0.34707950  0.73908713  0.18784785     0.16100
O780        O  0.39849556  0.71388732  0.15334994    -0.60800
H781        H  0.44924958  0.77674025  0.24941351     0.16100
O782        O  0.39864734  0.80058165  0.28425577    -0.60900
H783        H  0.39282374  0.82213919  0.27350863     0.43100
H784        H  0.39615988  0.69302645  0.16790031     0.43100
C785        C  0.11831728  0.74078272  0.26772963    -0.06000
C786        C  0.14454991  0.72068976  0.26028647    -0.33400
C787        C  0.17496077  0.72875788  0.27474910     0.35900
C788        C  0.17985549  0.75828394  0.29573105    -0.06300
C789        C  0.15295779  0.77690063  0.30660821    -0.33300
C790        C  0.12215590  0.76810617  0.29301758     0.35800
H791        H  0.14174032  0.69941901  0.24127726     0.16100
O792        O  0.20007251  0.70857271  0.26540022    -0.60800
H793        H  0.15600993  0.79934127  0.32307098     0.16100
O794        O  0.09668219  0.78822213  0.30064387    -0.60900
H795        H  0.08695703  0.78015593  0.32674422     0.43100
H796        H  0.20276470  0.69483254  0.29030768     0.43100
C797        C  0.24117868  0.74344871  0.53806153    -0.06000
C798        C  0.27123343  0.73350258  0.52252752    -0.33400
C799        C  0.28087468  0.74097425  0.48198229     0.35900
C800        C  0.26031715  0.75869401  0.45563838    -0.06300
C801        C  0.23000395  0.76813905  0.47093948    -0.33300
C802        C  0.22035029  0.76060642  0.51149015     0.35800
H803        H  0.28763861  0.71999656  0.54201175     0.16100
O804        O  0.31044012  0.73062657  0.46857120    -0.60800
H805        H  0.21357876  0.78161673  0.45145524     0.16100
O806        O  0.19052143  0.77032842  0.52469782    -0.60900
H807        H  0.17595366  0.75227217  0.51794049     0.43100
H808        H  0.32565957  0.74772682  0.47690218     0.43100
C809        C  0.07894545  0.77995672  0.79872619    -0.06000
C810        C  0.09468417  0.75268528  0.81455207    -0.33400
C811        C  0.12311724  0.74132213  0.79571524     0.35900
C812        C  0.13600651  0.75776726  0.76119533    -0.06300
C813        C  0.12167421  0.78674665  0.74865044    -0.33300
C814        C  0.09349358  0.79769827  0.76689656     0.35800
H815        H  0.08380460  0.73902853  0.83945818     0.16100
O816        O  0.13707055  0.71357516  0.80997670    -0.60800
H817        H  0.13160185  0.80064174  0.72325405     0.16100
O818        O  0.07902588  0.82475368  0.75135541    -0.60900
H819        H  0.09262299  0.84282129  0.76087954     0.43100
H820        H  0.12685190  0.69609967  0.79384970     0.43100
C821        C  0.32555880  0.72689726  0.70775010    -0.06000
C822        C  0.34079983  0.70787000  0.73755754    -0.33400
C823        C  0.36847277  0.71862155  0.75748155     0.35900
C824        C  0.38154096  0.74889034  0.74749932    -0.06300
C825        C  0.36770454  0.76693190  0.71520287    -0.33300
C826        C  0.33955828  0.75618459  0.69555579     0.35800
H827        H  0.32998277  0.68546818  0.74741822     0.16100
O828        O  0.38256386  0.69934097  0.78691473    -0.60800
H829        H  0.37766192  0.79005301  0.70684104     0.16100
O830        O  0.32439783  0.77571713  0.66734716    -0.60900
H831        H  0.32866124  0.76583446  0.63989097     0.43100
H832        H  0.36980505  0.70273239  0.81257597     0.43100
C833        C  0.24560476  0.62758387  0.74766870    -0.06000
C834        C  0.26272984  0.60557804  0.72320007    -0.33400
C835        C  0.27451692  0.57732478  0.73977590     0.35900
C836        C  0.26898926  0.56985654  0.78181534    -0.06300
C837        C  0.25248833  0.59186351  0.80706979    -0.33300
C838        C  0.24099078  0.62089524  0.79024834     0.35800
H839        H  0.26783126  0.61039024  0.69079131     0.16100
O840        O  0.29215226  0.55730378  0.71458427    -0.60800
H841        H  0.24778364  0.58619270  0.83932989     0.16100
O842        O  0.22473760  0.64200395  0.81530120    -0.60900
H843        H  0.24162246  0.65551177  0.82811120     0.43100
H844        H  0.27622928  0.54649129  0.69648336     0.43100
C845        C  0.26561970  0.88196357  0.74190199    -0.06000
C846        C  0.27703420  0.85341578  0.75935324    -0.33400
C847        C  0.26812017  0.82382589  0.74308776     0.35900
C848        C  0.24655868  0.82216359  0.70916898    -0.06300
C849        C  0.23782313  0.85066124  0.68881525    -0.33300
C850        C  0.24734411  0.88056869  0.70491576     0.35800
H851        H  0.29182341  0.85394592  0.78704740     0.16100
O852        O  0.27905693  0.79655617  0.76245929    -0.60800
H853        H  0.22188514  0.84990854  0.66225754     0.16100
O854        O  0.23697977  0.90815126  0.68581064    -0.60900
H855        H  0.21471935  0.91156893  0.69593539     0.43100
H856        H  0.30113247  0.79319618  0.75168738     0.43100
C857        C  0.49004037  0.99422664  0.45918613    -0.06000
C858        C  0.02037860  0.49987240  0.47731798    -0.33400
C859        C  0.03036814  0.50850316  0.51735730     0.35900
C860        C  0.00756777  0.51797403  0.54753388    -0.06300
C861        C  0.48288918  0.02679661  0.52147779    -0.33300
C862        C  0.47372323  0.01883505  0.48089588     0.35800
H863        H  0.03839838  0.49227815  0.45506470     0.16100
O864        O  0.06257381  0.50765184  0.52644573    -0.60800
H865        H  0.46999235  0.04573261  0.53747694     0.16100
O866        O  0.44872929  0.03528832  0.46295573    -0.60900
H867        H  0.45871595  0.05431448  0.44970997     0.43100
H868        H  0.07038972  0.52974456  0.52110084     0.43100
C869        C  0.14499443  0.65875253  0.62916249    -0.06000
C870        C  0.15262251  0.62736931  0.61600729    -0.33400
C871        C  0.12972939  0.60258048  0.61716172     0.35900
C872        C  0.09823333  0.60858260  0.63164027    -0.06300
C873        C  0.09007105  0.64016029  0.64291596    -0.33300
C874        C  0.11296609  0.66497678  0.64195990     0.35800
H875        H  0.17681430  0.62164453  0.60591619     0.16100
O876        O  0.13876255  0.57232453  0.60501682    -0.60800
H877        H  0.06619529  0.64537818  0.65464418     0.16100
O878        O  0.10411111  0.69469685  0.65628526    -0.60900
H879        H  0.09650539  0.70653368  0.63142593     0.43100
H880        H  0.13036102  0.56994796  0.57638267     0.43100
C881        C  0.12044684  0.51632788  0.76604449    -0.06000
C882        C  0.12099946  0.49404356  0.79885109    -0.33400
C883        C  0.15028902  0.48093085  0.81278003     0.35900
C884        C  0.17691522  0.97556519  0.79167760    -0.06300
C885        C  0.16429615  0.95816622  0.75874281    -0.33300
C886        C  0.13591900  0.96778233  0.73969685     0.35800
H887        H  0.09863670  0.48489179  0.81131463     0.16100
O888        O  0.15001383  0.45728487  0.84242628    -0.60800
H889        H  0.17785055  0.93839054  0.74554262     0.16100
O890        O  0.12579133  0.95073316  0.70571663    -0.60900
H891        H  0.13900437  0.95863735  0.68219480     0.43100
H892        H  0.14924882  0.43682405  0.82674594     0.43100
C893        C  0.42750770  0.52028844  0.71087313    -0.06000
C894        C  0.40819444  0.54172713  0.73306073    -0.33400
C895        C  0.37995728  0.53118402  0.75216465     0.35900
C896        C  0.37021556  0.49886786  0.74835596    -0.06300
C897        C  0.38805507  0.47805412  0.72304820    -0.33300
C898        C  0.41691133  0.48847588  0.70490060     0.35800
H899        H  0.41623805  0.56608804  0.73825952     0.16100
O900        O  0.36271038  0.55235654  0.77608076    -0.60800
H901        H  0.38032740  0.95782803  0.72224420     0.16100
O902        O  0.43558918  0.46695930  0.68346951    -0.60900
H903        H  0.42807145  0.46834180  0.65431872     0.43100
H904        H  0.34910944  0.56451460  0.75626224     0.43100
C905        C  0.48929759  0.68154144  0.79899358    -0.06000
C906        C  0.47251028  0.65394997  0.81133544    -0.33400
C907        C  0.48134842  0.62366650  0.79559719     0.35900
C908        C  0.00223686  0.62023473  0.76927367    -0.06300
C909        C  0.02523431  0.64453046  0.76948905    -0.33300
C910        C  0.51709484  0.67814797  0.77419094     0.35800
H911        H  0.45122678  0.65611473  0.83055487     0.16100
O912        O  0.46319456  0.59729161  0.80541422    -0.60800
H913        H  0.04863001  0.64048921  0.75553214     0.16100
O914        O  0.04104555  0.69799711  0.78438585    -0.60900
H915        H  0.05140472  0.69701159  0.81204486     0.43100
H916        H  0.44325539  0.59949868  0.78880341     0.43100
C917        C  0.02319933  0.92494917  0.69797548    -0.06000
C918        C  0.99380889  0.91068254  0.68700064    -0.33400
C919        C  0.98274255  0.88330729  0.70844983     0.35900
C920        C  0.00121595  0.87045746  0.74123473    -0.06300
C921        C  0.03130424  0.88389245  0.74992890    -0.33300
C922        C  0.04237110  0.91049019  0.72855857     0.35800
H923        H  0.97849400  0.92202491  0.66410158     0.16100
O924        O  0.95320466  0.87076736  0.69901339    -0.60800
H925        H  0.54438261  0.87472885  0.78256148     0.16100
O926        O  0.07110034  0.92386460  0.74011216    -0.60900
H927        H  0.06661806  0.93568079  0.76621820     0.43100
H928        H  0.93789524  0.88173587  0.71793005     0.43100
O929        O  0.53438470  0.47979495  0.72867736    -0.82300
C930        C  0.58134489  0.07245874  0.62942306     0.97100
O931        O  0.58961377  0.04479050  0.64176484    -0.71400
O932        O  0.58910899  0.99887020  0.69674291    -0.75000
Al933      Al  0.56319641  0.00828222  0.65077547     1.49000
C934        C  0.59229436  0.00933461  0.73302936     0.92300
O935        O  0.51762615  0.06513320  0.75006913    -0.81200
O936        O  0.97034476  0.05283024  0.67394719    -0.74800
Al937      Al  0.52650595  0.02250402  0.73177007     1.90100
O938        O  0.02027816  0.09355476  0.69388826    -0.73900
O939        O  0.99973338  0.03914918  0.60426827    -0.73700
O940        O  0.55171139  0.07966751  0.62567993    -0.79400
O941        O  0.54503491  0.51864734  0.60212926    -0.77600
O942        O  0.53417467  0.03161311  0.67829445    -1.13700
O943        O  0.54190811  0.47456811  0.66151401    -0.72900
C944        C  0.53535414  0.46261186  0.69656190     0.97800
C945        C  0.51756731  0.09188564  0.73209451     0.94200
Al946      Al  0.51322555  0.06313914  0.65225359     1.55600
O947        O  0.57094358  0.02758588  0.74841260    -0.77500
C948        C  0.51865997  0.02056288  0.58348839     0.98400
C949        C  0.96140375  0.03078621  0.69844628     0.93300
O950        O  0.98125633  0.01518199  0.71982612    -0.82800
O951        O  0.71314358  0.27500457  0.72371685    -0.82300
C952        C  0.67565312  0.17481886  0.63001621     0.97100
O953        O  0.66470378  0.20208731  0.64028010    -0.71400
O954        O  0.65897324  0.24967232  0.69362188    -0.75000
Al955      Al  0.68711589  0.24087466  0.64867376     1.49000
C956        C  0.65632517  0.23933138  0.73021865     0.92300
O957        O  0.73239259  0.18961427  0.75282153    -0.81200
O958        O  0.78203850  0.20872495  0.67737379    -0.74800
Al959      Al  0.72174553  0.23089880  0.73212559     1.90100
O960        O  0.73800004  0.16083418  0.69691769    -0.73900
O961        O  0.75251391  0.21601171  0.60633464    -0.73700
O962        O  0.70592815  0.16961446  0.62869013    -0.79400
O963        O  0.70618713  0.23793722  0.59525254    -0.77600
O964        O  0.71738076  0.22071991  0.67837326    -1.13700
O965        O  0.70788976  0.28167840  0.65600833    -0.72900
C966        C  0.71278402  0.29290340  0.69204968     0.97800
C967        C  0.73682741  0.16302306  0.73568820     0.94200
Al968      Al  0.74244613  0.19134038  0.65438293     1.55600
O969        O  0.67803238  0.22184798  0.74548728    -0.77500
C970        C  0.73365267  0.23053620  0.58245095     0.98400
C971        C  0.78721927  0.23053340  0.70411421     0.93300
O972        O  0.76468958  0.24159482  0.72579401    -0.82800
O973        O  0.73737208  0.25646669  0.28224005    -0.82300
C974        C  0.83084300  0.32441509  0.37136944     0.97100
O975        O  0.80076237  0.32808039  0.37609993    -0.71400
O976        O  0.77126818  0.34068148  0.30752574    -0.75000
Al977      Al  0.76436019  0.30910097  0.34807795     1.49000
C978        C  0.76452701  0.33886255  0.26961461     0.92300
O979        O  0.81919756  0.28386084  0.24955646    -0.81200
O980        O  0.79939667  0.21805418  0.33667369    -0.74800
Al981      Al  0.77831515  0.27087489  0.26825631     1.90100
O982        O  0.84545826  0.25601732  0.29700771    -0.73900
O983        O  0.80093913  0.25841217  0.40084809    -0.73700
O984        O  0.84186224  0.29828368  0.35717276    -0.79400
O985        O  0.75429802  0.28152858  0.39289746    -0.77600
O986        O  0.78736778  0.27997375  0.32108149    -1.13700
O987        O  0.72362584  0.29590403  0.32418759    -0.72900
C988        C  0.71628248  0.27195255  0.30179301     0.97800
C989        C  0.84431331  0.26988769  0.26199111     0.94200
Al990      Al  0.81939618  0.25933150  0.34613350     1.55600
O991        O  0.76226400  0.31200037  0.25229772    -0.77500
C992        C  0.77332933  0.26509940  0.41462955     0.98400
C993        C  0.79268293  0.20824931  0.30050875     0.93300
O994        O  0.79144370  0.22761667  0.27055678    -0.82800
O995        O  0.51354895  0.49523198  0.28905528    -0.82300
C996        C  0.92051029  0.43127605  0.37716607     0.97100
O997        O  0.95051626  0.42762648  0.38354451    -0.71400
O998        O  0.98252359  0.41451851  0.31694022    -0.75000
Al999      Al  0.98774220  0.44682200  0.35672309     1.49000
C1000       C  0.98908860  0.41522726  0.27896530     0.92300
O1001       O  0.92984283  0.47341355  0.25838831    -0.81200
O1002       O  0.95607835  0.03312231  0.34122629    -0.74800
Al1003     Al  0.97266257  0.48409878  0.27572921     1.90100
O1004       O  0.90894100  0.00087270  0.29902240    -0.73900
O1005       O  0.95111287  0.99006044  0.40170963    -0.73700
O1006       O  0.90973231  0.45773049  0.36339756    -0.79400
O1007       O  0.49520992  0.47121834  0.40237507    -0.77600
O1008       O  0.96459880  0.47554230  0.32904741    -1.13700
O1009       O  0.52721032  0.45813384  0.33446747    -0.72900
C1010       C  0.53461833  0.48120302  0.31041634     0.97800
C1011       C  0.90649341  0.49037922  0.27088118     0.94200
Al1012     Al  0.93482823  0.99241813  0.34667393     1.55600
O1013       O  0.98695837  0.44140519  0.25934214    -0.77500
C1014       C  0.97788723  0.49007278  0.42365737     0.98400
C1015       C  0.96318564  0.04477590  0.30606994     0.93300
O1016       O  0.96414646  0.02729013  0.27400047    -0.82800
O1017       O  0.98504408  0.23635136  0.77117401    -0.82300
C1018       C  0.92408466  0.32662727  0.86869826     0.97100
O1019       O  0.91869906  0.29637999  0.87098118    -0.71400
O1020       O  0.90984088  0.26087998  0.80469045    -0.75000
Al1021     Al  0.94080216  0.25889528  0.84721754     1.49000
C1022       C  0.91044311  0.26635450  0.76642306     0.92300
O1023       O  0.97385552  0.32487983  0.75470469    -0.81200
O1024       O  0.53100474  0.29265388  0.83850534    -0.74800
Al1025     Al  0.97854689  0.28024531  0.76769327     1.90100
O1026       O  0.50164746  0.34209219  0.80035825    -0.73900
O1027       O  0.48830171  0.29905828  0.89986937    -0.73700
O1028       O  0.95170398  0.33717094  0.85859844    -0.79400
O1029       O  0.96584195  0.25001234  0.89563890    -0.77600
O1030       O  0.96946431  0.28402067  0.82189502    -1.13700
O1031       O  0.95914829  0.21910269  0.82601695    -0.72900
C1032       C  0.97753298  0.21393386  0.79525087     0.97800
C1033       C  0.99239686  0.34519944  0.77054518     0.95800
Al1034     Al  0.99035422  0.31366774  0.85137616     1.55600
O1035       O  0.93584835  0.27481098  0.74858606    -0.77500
C1036       C  0.98033470  0.26913710  0.91892300     0.98400
C1037       C  0.54170165  0.28518399  0.80285066     0.93300
O1038       O  0.52381382  0.28497427  0.77096071    -0.82800
O1039       O  0.77967939  0.02492395  0.77269833    -0.82300
C1040       C  0.82189388  0.42292445  0.87179634     0.97100
O1041       O  0.82912419  0.45290255  0.87092076    -0.71400
O1042       O  0.83728544  0.49520761  0.80850594    -0.75000
Al1043     Al  0.81141864  0.99682850  0.84835456     1.49000
C1044       C  0.84134396  0.48348960  0.77307432     0.92300
O1045       O  0.77582978  0.42338724  0.75850924    -0.81200
O1046       O  0.71678800  0.46156965  0.83912543    -0.74800
Al1047     Al  0.77576224  0.46776879  0.76962923     1.90100
O1048       O  0.74488397  0.40889652  0.80857478    -0.73900
O1049       O  0.75377593  0.45552322  0.90601552    -0.73700
O1050       O  0.79308004  0.41319644  0.86535656    -0.79400
O1051       O  0.79364260  0.99341374  0.90275120    -0.77600
O1052       O  0.77911929  0.46550025  0.82465014    -1.13700
O1053       O  0.78450611  0.03432186  0.83951534    -0.72900
C1054       C  0.77545423  0.04303965  0.80353183     0.97800
C1055       C  0.75534944  0.40457624  0.77264520     0.94200
Al1056     Al  0.75487258  0.43742691  0.85230160     1.55600
O1057       O  0.82047298  0.46550499  0.75760735    -0.77500
C1058       C  0.76455684  0.48036068  0.92222185     0.98400
C1059       C  0.70997529  0.47255440  0.80319845     0.93300
O1060       O  0.72994724  0.47109822  0.77326169    -0.82800
O1061       O  0.97806460  0.22742470  0.22894984    -0.82300
C1062       C  0.57599087  0.17953931  0.13279048     0.97100
O1063       O  0.54625126  0.17245933  0.13610664    -0.71400
O1064       O  0.50047947  0.16755243  0.19250316    -0.75000
Al1065     Al  0.50920493  0.19718104  0.15091246     1.49000
C1066       C  0.50867592  0.16257857  0.22908174     0.92300
O1067       O  0.57361487  0.22178951  0.24734990    -0.81200
O1068       O  0.54331511  0.28804469  0.16981599    -0.74800
Al1069     Al  0.52957160  0.22723106  0.23442978     1.90100
O1070       O  0.59290664  0.25173080  0.19797147    -0.73900
O1071       O  0.54380902  0.25356446  0.10053897    -0.73700
O1072       O  0.58577517  0.20863821  0.13628544    -0.79400
O1073       O  0.01386025  0.20817336  0.10080678    -0.77600
O1074       O  0.53410458  0.22413926  0.17936013    -1.13700
O1075       O  0.97086245  0.21915016  0.16137857    -0.72900
C1076       C  0.96129857  0.23003929  0.19616529     0.97800
C1077       C  0.59556290  0.23908862  0.23310488     0.94200
Al1078     Al  0.56370302  0.24794464  0.15325356     1.55600
O1079       O  0.52565209  0.18280831  0.24732964    -0.77500
C1080       C  0.52174798  0.23950110  0.08179325     0.98400
C1081       C  0.53455702  0.29437099  0.20679813     0.93300
O1082       O  0.53252491  0.27234348  0.23367791    -0.82800
O1083       O  0.76863653  0.01203467  0.22042668    -0.82300
C1084       C  0.67129293  0.07605770  0.13403192     0.97100
O1085       O  0.70103282  0.08217646  0.13025151    -0.71400
O1086       O  0.73473063  0.09471931  0.19570250    -0.75000
Al1087     Al  0.73918903  0.06332904  0.15394954     1.49000
C1088       C  0.74278929  0.09225526  0.23307049     0.92300
O1089       O  0.68480528  0.03545310  0.25286989    -0.81200
O1090       O  0.71055911  0.46688147  0.17149508    -0.74800
Al1091     Al  0.72684441  0.02439965  0.23445932     1.90100
O1092       O  0.66117658  0.00550366  0.20549155    -0.73900
O1093       O  0.70457098  0.00993790  0.10132561    -0.73700
O1094       O  0.66212414  0.04835310  0.14540589    -0.79400
O1095       O  0.74828839  0.03777367  0.10673033    -0.77600
O1096       O  0.71766474  0.03313227  0.18136871    -1.13700
O1097       O  0.78059330  0.04935994  0.17422461    -0.72900
C1098       C  0.78874104  0.02633098  0.19783170     0.97800
C1099       C  0.66080378  0.01969215  0.24022947     0.94200
Al1100     Al  0.68693146  0.01043604  0.15646286     1.55600
O1101       O  0.74160893  0.06562015  0.25100908    -0.77500
C1102       C  0.73077696  0.01929284  0.08605461     0.98400
C1103       C  0.71940993  0.45872412  0.20767449     0.93300
O1104       O  0.71474085  0.47727813  0.23793477    -0.82800
C1105       C  0.59988488  0.15268569  0.12736989    -0.06000
C1106       C  0.63273146  0.15939331  0.12165937    -0.33400
C1107       C  0.65601162  0.13476419  0.12151266     0.35900
C1108       C  0.64694021  0.10231274  0.12752968    -0.06300
C1109       C  0.61401143  0.09553259  0.13172043    -0.33300
C1110       C  0.59075628  0.12007554  0.13181885     0.35800
H1111       H  0.64065600  0.18401263  0.11841644     0.16100
O1112       O  0.68773636  0.14310246  0.11759048    -0.60800
H1113       H  0.60613240  0.07104100  0.13648968     0.16100
O1114       O  0.55919606  0.11170630  0.13766633    -0.60900
H1115       H  0.55635335  0.11034643  0.16820291     0.43100
H1116       H  0.69244078  0.14142271  0.08748588     0.43100
C1117       C  0.75444907  0.49004037  0.96501738    -0.06000
C1118       C  0.77822480  0.01049121  0.98474024    -0.33400
C1119       C  0.76988917  0.01962585  0.02525909     0.35900
C1120       C  0.74082157  0.00895758  0.04335845    -0.06300
C1121       C  0.71983189  0.48421638  0.02600541    -0.33300
C1122       C  0.72807677  0.47545949  0.98527721     0.35800
H1123       H  0.80068903  0.01919933  0.97202093     0.16100
O1124       O  0.79072844  0.03877780  0.04692332    -0.60800
H1125       H  0.69970034  0.47232314  0.04075051     0.16100
O1126       O  0.71000120  0.45256827  0.96566567    -0.60900
H1127       H  0.69350638  0.46472359  0.94987183     0.43100
H1128       H  0.78558384  0.06101854  0.03809243     0.43100
C1129       C  0.99034366  0.26000143  0.96191487    -0.06000
C1130       C  0.51574688  0.28168320  0.97672623    -0.33400
C1131       C  0.52589436  0.27433760  0.01716904     0.35900
C1132       C  0.51187251  0.24851406  0.03887609    -0.06300
C1133       C  0.99585644  0.22130556  0.01843625    -0.33300
C1134       C  0.98592692  0.22877312  0.97790186     0.35800
H1135       H  0.52688515  0.30168493  0.96077901     0.16100
O1136       O  0.54917871  0.29290098  0.03521445    -0.60800
H1137       H  0.99198716  0.19713835  0.02979124     0.16100
O1138       O  0.97163486  0.20533315  0.95450817    -0.60900
H1139       H  0.98955710  0.19441102  0.93984825     0.43100
H1140       H  0.56986735  0.28288591  0.02692448     0.43100
C1141       C  0.89766311  0.35060855  0.87606862    -0.06000
C1142       C  0.90509584  0.38356758  0.87603562    -0.33400
C1143       C  0.88098800  0.40720477  0.87649587     0.35900
C1144       C  0.84815674  0.39847670  0.87765463    -0.06300
C1145       C  0.84070884  0.36550082  0.87987972    -0.33300
C1146       C  0.86495392  0.34179005  0.87918587     0.35800
H1147       H  0.92988496  0.39131863  0.87397154     0.16100
O1148       O  0.89004903  0.43878742  0.87416549    -0.60800
H1149       H  0.81584385  0.35786957  0.88069380     0.16100
O1150       O  0.85610901  0.31011687  0.87917975    -0.60900
H1151       H  0.85603323  0.30365833  0.90881729     0.43100
H1152       H  0.89222506  0.44338966  0.84406759     0.43100
C1153       C  0.96957278  0.07908990  0.29998045    -0.06000
C1154       C  0.95047164  0.09518651  0.27101064    -0.33400
C1155       C  0.96118549  0.12313717  0.25186478     0.35900
C1156       C  0.99168105  0.13579923  0.26178078    -0.06300
C1157       C  0.51127305  0.12183651  0.28684702    -0.33300
C1158       C  0.50069893  0.09311084  0.30527139     0.35800
H1159       H  0.92798289  0.08485746  0.26101370     0.16100
O1160       O  0.94176644  0.13757594  0.22285247    -0.60800
H1161       H  0.53140183  0.13450400  0.30038176     0.16100
O1162       O  0.51692483  0.08084694  0.33877893    -0.60900
H1163       H  0.50438280  0.08784815  0.36335776     0.43100
H1164       H  0.94454974  0.12477687  0.19713858     0.43100
C1165       C  0.50161032  0.38444451  0.25784316    -0.06000
C1166       C  0.50167746  0.38042727  0.21433124    -0.33400
C1167       C  0.51376681  0.35191766  0.19611945     0.35900
C1168       C  0.52619431  0.32723371  0.22157225    -0.06300
C1169       C  0.02608680  0.33239743  0.26739423    -0.33300
C1170       C  0.01512831  0.36098808  0.28462678     0.35800
H1171       H  0.49171711  0.39899718  0.19456652     0.16100
O1172       O  0.51259983  0.34822586  0.15386946    -0.60800
H1173       H  0.03553834  0.31412237  0.28809302     0.16100
O1174       O  0.01791927  0.36480600  0.32678012    -0.60900
H1175       H  0.03872888  0.37591899  0.33091086     0.43100
H1176       H  0.49116494  0.33886883  0.14814233     0.43100
C1177       C  0.56838572  0.49118724  0.30407120    -0.06000
C1178       C  0.59281390  0.46795047  0.30284314    -0.33400
C1179       C  0.62305329  0.47550070  0.28633979     0.35900
C1180       C  0.63237096  0.01537993  0.26628456    -0.06300
C1181       C  0.60512507  0.03387522  0.25784796    -0.33300
C1182       C  0.57488926  0.02376640  0.27136633     0.35800
H1183       H  0.58774408  0.44336591  0.31163436     0.16100
O1184       O  0.64565665  0.45167708  0.28218261    -0.60800
H1185       H  0.60695923  0.05490809  0.23814338     0.16100
O1186       O  0.54838901  0.04190677  0.26142712    -0.60900
H1187       H  0.54414654  0.03757103  0.23166127     0.43100
H1188       H  0.65985120  0.45389906  0.30672234     0.43100
C1189       C  0.82245703  0.01684202  0.20227510    -0.06000
C1190       C  0.83015014  0.98401216  0.20533238    -0.33400
C1191       C  0.85796191  0.47501673  0.22873664     0.35900
C1192       C  0.88127358  0.99735251  0.23625277    -0.06300
C1193       C  0.87466325  0.03001931  0.23001708    -0.33300
C1194       C  0.84551594  0.03991866  0.21287515     0.35800
H1195       H  0.81242218  0.96605483  0.19731234     0.16100
O1196       O  0.86451428  0.44301931  0.23416389    -0.60800
H1197       H  0.89134291  0.04794985  0.24089187     0.16100
O1198       O  0.83862634  0.07209659  0.21039578    -0.60900
H1199       H  0.82960371  0.07789779  0.23791047     0.43100
H1200       H  0.87798867  0.43691865  0.21000683     0.43100
C1201       C  0.85334558  0.35160920  0.38033648    -0.06000
C1202       C  0.88670546  0.34601993  0.38202288    -0.33400
C1203       C  0.90876828  0.37153240  0.38364865     0.35900
C1204       C  0.89784232  0.40372858  0.38339871    -0.06300
C1205       C  0.86443643  0.40925051  0.38389531    -0.33300
C1206       C  0.84237866  0.38373914  0.38274923     0.35800
H1207       H  0.89592029  0.32170028  0.38050305     0.16100
O1208       O  0.94101604  0.36455742  0.38344124    -0.60800
H1209       H  0.85523249  0.43360337  0.38370114     0.16100
O1210       O  0.81018482  0.39080571  0.38103220    -0.60900
H1211       H  0.80286613  0.39083804  0.41033747     0.43100
H1212       H  0.94671798  0.36166628  0.35376990     0.43100
C1213       C  0.75780263  0.36864275  0.24662735    -0.06000
C1214       C  0.76974314  0.39723692  0.26297224    -0.33400
C1215       C  0.75843970  0.42660367  0.24890677     0.35900
C1216       C  0.73543178  0.42797948  0.21668289    -0.06300
C1217       C  0.72579838  0.39951196  0.19726814    -0.33300
C1218       C  0.73675465  0.36974949  0.21223459     0.35800
H1219       H  0.78659890  0.39691718  0.28863694     0.16100
O1220       O  0.76945484  0.45386765  0.26794204    -0.60800
H1221       H  0.70817070  0.40019892  0.17253976     0.16100
O1222       O  0.72453881  0.34209447  0.19555172    -0.60900
H1223       H  0.73726405  0.33830425  0.16997015     0.43100
H1224       H  0.75776138  0.45509329  0.29475486     0.43100
C1225       C  0.78560374  0.17454797  0.29040844    -0.06000
C1226       C  0.79545228  0.16388854  0.25112265    -0.33400
C1227       C  0.78126659  0.13738169  0.23264641     0.35900
C1228       C  0.75748767  0.12000616  0.25394866    -0.06300
C1229       C  0.74962654  0.12862100  0.29496592    -0.33300
C1230       C  0.76332840  0.15612694  0.31314804     0.35800
H1231       H  0.81280881  0.17757744  0.23331437     0.16100
O1232       O  0.79102086  0.12849132  0.19359215    -0.60800
H1233       H  0.73183592  0.11498271  0.31202221     0.16100
O1234       O  0.75275012  0.16624997  0.35127809    -0.60900
H1235       H  0.76846381  0.15736993  0.37140321     0.43100
H1236       H  0.77853291  0.14228074  0.17430390     0.43100
C1237       C  0.87208351  0.26708698  0.23474653    -0.06000
C1238       C  0.87235268  0.24287009  0.20444106    -0.33400
C1239       C  0.90152430  0.23224390  0.18749948     0.35900
C1240       C  0.93032948  0.24633992  0.20085616    -0.06300
C1241       C  0.92937942  0.27301566  0.22750391    -0.33300
C1242       C  0.90047946  0.28314556  0.24491537     0.35800
H1243       H  0.85039329  0.23018584  0.19696087     0.16100
O1244       O  0.90188064  0.20620390  0.16147597    -0.60800
H1245       H  0.95150074  0.28417102  0.23780536     0.16100
O1246       O  0.90063646  0.30636354  0.27508784    -0.60900
H1247       H  0.90024118  0.32704902  0.25984540     0.43100
H1248       H  0.90363767  0.18722586  0.17996338     0.43100
C1249       C  0.62375301  0.24683738  0.25823296    -0.06000
C1250       C  0.64460845  0.22256625  0.27149760    -0.33400
C1251       C  0.67416918  0.23050595  0.28930455     0.35900
C1252       C  0.68266386  0.26304324  0.29464134    -0.06300
C1253       C  0.66045134  0.28714214  0.28476499    -0.33300
C1254       C  0.63120189  0.27920358  0.26625859     0.35800
H1255       H  0.63888818  0.19761999  0.26564927     0.16100
O1256       O  0.69548606  0.20640648  0.29879088    -0.60800
H1257       H  0.66679017  0.31220610  0.28830671     0.16100
O1258       O  0.61071431  0.30329924  0.25410572    -0.60900
H1259       H  0.59710258  0.30766615  0.27874276     0.43100
H1260       H  0.69456158  0.20424459  0.32942610     0.43100
C1261       C  0.74348362  0.23871012  0.53912168    -0.06000
C1262       C  0.77403195  0.22967845  0.52431050    -0.33400
C1263       C  0.78394944  0.23740875  0.48381726     0.35900
C1264       C  0.76324708  0.25461656  0.45699392    -0.06300
C1265       C  0.73249346  0.26302301  0.47158122    -0.33300
C1266       C  0.72250879  0.25514446  0.51182518     0.35800
H1267       H  0.79048096  0.21662253  0.54423193     0.16100
O1268       O  0.81387842  0.22777484  0.47088936    -0.60800
H1269       H  0.71593808  0.27607162  0.45179277     0.16100
O1270       O  0.69225312  0.26421887  0.52416950    -0.60900
H1271       H  0.67801591  0.24634604  0.51564828     0.43100
H1272       H  0.82861435  0.24518414  0.47958405     0.43100
C1273       C  0.57557578  0.27759764  0.79581151    -0.06000
C1274       C  0.58819187  0.24785331  0.80848324    -0.33400
C1275       C  0.61539546  0.23494185  0.78848663     0.35900
C1276       C  0.62976756  0.25201804  0.75563559    -0.06300
C1277       C  0.61857336  0.28293003  0.74597288    -0.33300
C1278       C  0.59195218  0.29576177  0.76593348     0.35800
H1279       H  0.57534016  0.23343090  0.83101850     0.16100
O1280       O  0.62623252  0.20495707  0.79923957    -0.60800
H1281       H  0.62986003  0.29697179  0.72168524     0.16100
O1282       O  0.58028200  0.32499250  0.75332676    -0.60900
H1283       H  0.59345337  0.34101959  0.76834741     0.43100
H1284       H  0.61399828  0.18989072  0.78147349     0.43100
C1285       C  0.81995681  0.24318321  0.71240856    -0.06000
C1286       C  0.84741305  0.22537253  0.70152233    -0.33400
C1287       C  0.87782334  0.23428171  0.71644158     0.35900
C1288       C  0.88092703  0.26120440  0.74252083    -0.06300
C1289       C  0.85408391  0.28022298  0.75099632    -0.33300
C1290       C  0.82392728  0.27189920  0.73546748     0.35800
H1291       H  0.84511114  0.20354743  0.68354138     0.16100
O1292       O  0.90402073  0.21541863  0.70754953    -0.60800
H1293       H  0.85631450  0.30104663  0.77093862     0.16100
O1294       O  0.79823089  0.29132406  0.74475995    -0.60900
H1295       H  0.79962568  0.30936909  0.72478710     0.43100
H1296       H  0.90580481  0.20019759  0.73114247     0.43100
C1297       C  0.74144863  0.13374755  0.76055596    -0.06000
C1298       C  0.72801714  0.10534671  0.74577470    -0.33400
C1299       C  0.73676658  0.07591183  0.76272792     0.35900
C1300       C  0.75998780  0.07428348  0.79473714    -0.06300
C1301       C  0.77148016  0.10289725  0.81212217    -0.33300
C1302       C  0.76230932  0.13269400  0.79511225     0.35800
H1303       H  0.71168078  0.10582773  0.71955052     0.16100
O1304       O  0.72421920  0.04858784  0.74550259    -0.60800
H1305       H  0.78931850  0.10211188  0.83658716     0.16100
O1306       O  0.77570810  0.16030677  0.81036068    -0.60900
H1307       H  0.79544584  0.16370656  0.79363981     0.43100
H1308       H  0.70177440  0.04747479  0.75574868     0.43100
C1309       C  0.74187122  0.37879645  0.74651490    -0.06000
C1310       C  0.75822404  0.36807600  0.71080067    -0.33400
C1311       C  0.74630065  0.34220007  0.68762128     0.35900
C1312       C  0.71783048  0.32700158  0.70023722    -0.06300
C1313       C  0.69975431  0.34014158  0.73275143    -0.33300
C1314       C  0.71157426  0.36556105  0.75606993     0.35800
H1315       H  0.78103640  0.37862329  0.70211481     0.16100
O1316       O  0.76437767  0.32977038  0.65583631    -0.60800
H1317       H  0.67772811  0.32861706  0.74271540     0.16100
O1318       O  0.69344107  0.37688302  0.78855884    -0.60900
H1319       H  0.69778438  0.36197764  0.81194076     0.43100
H1320       H  0.75526413  0.33938559  0.63023571     0.43100
C1321       C  0.98774973  0.50100883  0.46588798    -0.06000
C1322       C  0.51581389  0.97852502  0.47879833    -0.33400
C1323       C  0.52528838  0.98678496  0.51898694     0.35900
C1324       C  0.50869628  0.01105497  0.54098700    -0.06300
C1325       C  0.97507622  0.52003967  0.53576554    -0.33300
C1326       C  0.96514222  0.51192165  0.49548020     0.35800
H1327       H  0.52883120  0.95957677  0.46297946     0.16100
O1328       O  0.55034971  0.97026745  0.53673075    -0.60800
H1329       H  0.95708618  0.52759136  0.55807839     0.16100
O1330       O  0.93305459  0.51370985  0.48599903    -0.60900
H1331       H  0.92950302  0.53612333  0.47662315     0.43100
H1332       H  0.57005291  0.98122036  0.52678870     0.43100
C1333       C  0.65236847  0.14826719  0.62188369    -0.06000
C1334       C  0.66223391  0.11609278  0.62565772    -0.33400
C1335       C  0.63974262  0.09092463  0.62557050     0.35900
C1336       C  0.60644276  0.09754028  0.62180289    -0.06300
C1337       C  0.59692723  0.12954578  0.61508706    -0.33300
C1338       C  0.61936639  0.15461843  0.61499302     0.35800
H1339       H  0.68735311  0.11041969  0.63082891     0.16100
O1340       O  0.65060413  0.06014487  0.63141244    -0.60800
H1341       H  0.57169881  0.13551708  0.61168586     0.16100
O1342       O  0.60838388  0.18544517  0.60990529    -0.60900
H1343       H  0.61132025  0.19019529  0.57997188     0.43100
H1344       H  0.65635734  0.05232529  0.60330091     0.43100
C1345       C  0.62067053  0.99760799  0.75650948    -0.06000
C1346       C  0.63437673  0.01546596  0.78891189    -0.33400
C1347       C  0.66366549  0.00561423  0.80675674     0.35900
C1348       C  0.67875255  0.48833071  0.79453315    -0.06300
C1349       C  0.67820857  0.51324657  0.76505623    -0.33300
C1350       C  0.64923847  0.52554409  0.75008146     0.35800
H1351       H  0.62352180  0.03792244  0.79853125     0.16100
O1352       O  0.67860414  0.02513068  0.83501018    -0.60800
H1353       H  0.70043386  0.52228568  0.75217177     0.16100
O1354       O  0.64967967  0.54787829  0.71875159    -0.60900
H1355       H  0.64837494  0.56897238  0.73288894     0.43100
H1356       H  0.67576494  0.01433857  0.86221662     0.43100
C1357       C  0.92730996  0.02309966  0.70450304    -0.06000
C1358       C  0.90667184  0.04650334  0.72067500    -0.33400
C1359       C  0.87746753  0.03756852  0.73883293     0.35900
C1360       C  0.86854454  0.00490602  0.74049625    -0.06300
C1361       C  0.88778186  0.98191819  0.72077652    -0.33300
C1362       C  0.91719469  0.99083653  0.70313340     0.35800
H1363       H  0.91428278  0.07132901  0.72217571     0.16100
O1364       O  0.85856128  0.06073483  0.75684042    -0.60800
H1365       H  0.88615998  0.44588304  0.73480572     0.16100
O1366       O  0.93698527  0.96754078  0.68721011    -0.60900
H1367       H  0.93308471  0.96789410  0.65684989     0.43100
H1368       H  0.84302215  0.06716850  0.73500991     0.43100
C1369       C  0.99115619  0.18164904  0.78565165    -0.06000
C1370       C  0.97721082  0.15343611  0.80137420    -0.33400
C1371       C  0.98719657  0.12312162  0.78680043     0.35900
C1372       C  0.51131881  0.12164563  0.75526612    -0.06300
C1373       C  0.52803215  0.14916503  0.74354247    -0.33300
C1374       C  0.01736952  0.17882749  0.75763101     0.35800
H1375       H  0.95732830  0.15490453  0.82303373     0.16100
O1376       O  0.97129981  0.09618027  0.80001550    -0.60800
H1377       H  0.54796256  0.14746886  0.72191591     0.16100
O1378       O  0.53513399  0.20556124  0.74376258    -0.60900
H1379       H  0.55543177  0.20540782  0.75977363     0.43100
H1380       H  0.95296922  0.09369321  0.78062098     0.43100
C1381       C  0.52932533  0.42842342  0.70276794    -0.06000
C1382       C  0.50145087  0.41415383  0.68658389    -0.33400
C1383       C  0.48889458  0.38615764  0.70489424     0.35900
C1384       C  0.50435594  0.37267937  0.73974056    -0.06300
C1385       C  0.53354183  0.38586874  0.75329304    -0.33300
C1386       C  0.54601828  0.41329261  0.73514361     0.35800
H1387       H  0.48807428  0.42607938  0.66216456     0.16100
O1388       O  0.46072021  0.37350327  0.69023391    -0.60800
H1389       H  0.04508045  0.37824279  0.79049156     0.16100
O1390       O  0.57348738  0.42661994  0.75123777    -0.60900
H1391       H  0.56693995  0.43629488  0.77808097     0.43100
H1392       H  0.44345946  0.38468645  0.70585714     0.43100
O1393       O  0.53193690  0.97795070  0.72574482    -0.82300
C1394       C  0.57818078  0.58061044  0.63836332     0.97100
O1395       O  0.58767448  0.55309060  0.64940863    -0.71400
O1396       O  0.59008358  0.50693222  0.70404485    -0.75000
Al1397     Al  0.56358620  0.51503910  0.65640619     1.49000
C1398       C  0.59068812  0.51840893  0.74040325     0.92300
O1399       O  0.51041925  0.56450490  0.75725425    -0.81200
O1400       O  0.96744629  0.54971709  0.68414129    -0.74800
Al1401     Al  0.52403525  0.52343028  0.73646667     1.90100
O1402       O  0.01317783  0.59547250  0.70571751    -0.73900
O1403       O  0.99854841  0.54174856  0.61384133    -0.73700
O1404       O  0.54826889  0.58656215  0.63489855    -0.79400
O1405       O  0.54537600  0.01151432  0.59707406    -0.77600
O1406       O  0.53273932  0.53543679  0.68434321    -1.13700
O1407       O  0.53883557  0.96937097  0.65882280    -0.72900
C1408       C  0.53194094  0.95934709  0.69494588     0.97800
C1409       C  0.51255004  0.59220623  0.74199342     0.94200
Al1410     Al  0.51066002  0.56704011  0.66053974     1.55600
O1411       O  0.56641727  0.53252697  0.75551794    -0.77500
C1412       C  0.51771665  0.52708192  0.58917267     0.98400
C1413       C  0.96073143  0.52542468  0.70643349     0.93300
O1414       O  0.98214116  0.51072178  0.72646701    -0.82800
O1415       O  0.72966651  0.77094622  0.73119595    -0.82300
C1416       C  0.67531759  0.68137374  0.63597263     0.97100
O1417       O  0.66739704  0.70993111  0.64617294    -0.71400
O1418       O  0.66925500  0.75827601  0.70046117    -0.75000
Al1419     Al  0.69481409  0.74602587  0.65499249     1.49000
C1420       C  0.66336544  0.74597281  0.73507844     0.92300
O1421       O  0.72716916  0.68147186  0.75134249    -0.81200
O1422       O  0.78597951  0.70718587  0.67189397    -0.74800
Al1423     Al  0.72742916  0.72552828  0.73647622     1.90100
O1424       O  0.74385152  0.66019138  0.69361336    -0.73900
O1425       O  0.75338639  0.71628762  0.60476074    -0.73700
O1426       O  0.70495861  0.67324743  0.63197683    -0.79400
O1427       O  0.70964999  0.74326300  0.59927392    -0.77600
O1428       O  0.72266801  0.72074204  0.68154153    -1.13700
O1429       O  0.72216967  0.78259737  0.66450002    -0.72900
C1430       C  0.73279457  0.78987289  0.70048998     0.97800
C1431       C  0.73673548  0.65757613  0.73121619     0.94200
Al1432     Al  0.74489635  0.69176721  0.65296176     1.55600
O1433       O  0.68249566  0.72554124  0.74959523    -0.77500
C1434       C  0.73500331  0.73309453  0.58325659     0.98400
C1435       C  0.79329537  0.71972160  0.70638933     0.93300
O1436       O  0.77229300  0.72598586  0.73335283    -0.82800
O1437       O  0.73348901  0.75668112  0.27681635    -0.82300
C1438       C  0.82654644  0.82422077  0.36628355     0.97100
O1439       O  0.79638947  0.82932150  0.36990631    -0.71400
O1440       O  0.76272239  0.84034253  0.30401528    -0.75000
Al1441     Al  0.75882019  0.80853246  0.34503442     1.49000
C1442       C  0.75787564  0.83888059  0.26567878     0.92300
O1443       O  0.81512207  0.78480082  0.24689397    -0.81200
O1444       O  0.79394248  0.71822108  0.33309080    -0.74800
Al1445     Al  0.77410834  0.77126837  0.26430855     1.90100
O1446       O  0.84053567  0.75571018  0.29377147    -0.73900
O1447       O  0.79651860  0.75767179  0.39760146    -0.73700
O1448       O  0.83676740  0.79725456  0.35401802    -0.79400
O1449       O  0.75060101  0.78203075  0.39167688    -0.77600
O1450       O  0.78231146  0.77992759  0.31767264    -1.13700
O1451       O  0.71784621  0.79201046  0.32344752    -0.72900
C1452       C  0.71181445  0.76857470  0.29919495     0.97800
C1453       C  0.84000756  0.77049062  0.25936847     0.94200
Al1454     Al  0.81427905  0.75893406  0.34274028     1.55600
O1455       O  0.75777126  0.81222705  0.24771132    -0.77500
C1456       C  0.76965737  0.76524333  0.41270141     0.98400
C1457       C  0.78763259  0.70837409  0.29689521     0.93300
O1458       O  0.78742470  0.72763784  0.26666006    -0.82800
O1459       O  0.51931935  0.98463970  0.27088953    -0.82300
C1460       C  0.92245939  0.92616437  0.36495850     0.97100
O1461       O  0.95270712  0.92114644  0.36850099    -0.71400
O1462       O  0.98950350  0.91218426  0.30333491    -0.75000
Al1463     Al  0.99064095  0.94307062  0.34582926     1.49000
C1464       C  0.99199485  0.91512083  0.26476923     0.92300
O1465       O  0.93156247  0.97254940  0.24979575    -0.81200
O1466       O  0.95438503  0.53707470  0.34691012    -0.74800
Al1467     Al  0.97408596  0.98281679  0.26678262     1.90100
O1468       O  0.90722266  0.50334793  0.30628020    -0.73900
O1469       O  0.95003140  0.49555785  0.41014386    -0.73700
O1470       O  0.91195374  0.95343109  0.35369609    -0.79400
O1471       O  0.49714938  0.96412521  0.39755622    -0.77600
O1472       O  0.96674318  0.97230892  0.31973165    -1.13700
O1473       O  0.53294987  0.96405158  0.33172248    -0.72900
C1474       C  0.53964460  0.98030139  0.29948731     0.97800
C1475       C  0.90828721  0.98892200  0.26312517     0.94200
Al1476     Al  0.93294495  0.49656777  0.35473723     1.55600
O1477       O  0.98710081  0.94163655  0.24741535    -0.77500
C1478       C  0.97853883  0.98390159  0.41558518     0.98400
C1479       C  0.96133117  0.54758308  0.31104091     0.93300
O1480       O  0.96227350  0.52891210  0.28001832    -0.82800
O1481       O  0.98996198  0.73565206  0.78347067    -0.82300
C1482       C  0.93123118  0.83376549  0.87362386     0.97100
O1483       O  0.92433207  0.80417759  0.87832142    -0.71400
O1484       O  0.91038034  0.77047156  0.81314975    -0.75000
Al1485     Al  0.94221400  0.76524550  0.85374875     1.49000
C1486       C  0.91168987  0.76513225  0.77493102     0.92300
O1487       O  0.97254833  0.82169292  0.75533891    -0.81200
O1488       O  0.53314736  0.79134616  0.83914479    -0.74800
Al1489     Al  0.98058772  0.77840880  0.77256893     1.90100
O1490       O  0.49967099  0.84133385  0.80748683    -0.73900
O1491       O  0.49693743  0.79357712  0.90490110    -0.73700
O1492       O  0.95884738  0.84204526  0.86118858    -0.79400
O1493       O  0.96833958  0.75518985  0.90004173    -0.77600
O1494       O  0.97247097  0.78653728  0.82612552    -1.13700
O1495       O  0.95516209  0.72337175  0.83249723    -0.72900
C1496       C  0.97670816  0.71521620  0.80653052     0.97800
C1497       C  0.99077465  0.84371835  0.76816769     0.95800
Al1498     Al  0.99567064  0.81653378  0.85188285     1.55600
O1499       O  0.93788301  0.76745168  0.75576602    -0.77500
C1500       C  0.98563770  0.77319612  0.92160092     0.98400
C1501       C  0.54123331  0.78285184  0.80293427     0.93300
O1502       O  0.52077039  0.78049579  0.77416000    -0.82800
O1503       O  0.77556605  0.51229892  0.76941253    -0.82300
C1504       C  0.83245864  0.93279823  0.86954831     0.97100
O1505       O  0.83947673  0.96116964  0.85821551    -0.71400
O1506       O  0.83745416  0.00747169  0.80130208    -0.75000
Al1507     Al  0.80648169  0.49092215  0.85146485     1.49000
C1508       C  0.84090152  0.99494702  0.76594141     0.92300
O1509       O  0.76964248  0.93735785  0.74918876    -0.81200
O1510       O  0.72212266  0.95027917  0.82631299    -0.74800
Al1511     Al  0.77614801  0.97992984  0.76768210     1.90100
O1512       O  0.77192309  0.90881952  0.80561787    -0.73900
O1513       O  0.75159285  0.96353121  0.89552464    -0.73700
O1514       O  0.80327816  0.92399850  0.87238222    -0.79400
O1515       O  0.78408113  0.49686184  0.90214638    -0.77600
O1516       O  0.78368060  0.97173240  0.82136998    -1.13700
O1517       O  0.78516490  0.52954806  0.83261155    -0.72900
C1518       C  0.77580008  0.53460435  0.79562613     0.97800
C1519       C  0.77008304  0.91058610  0.76677852     0.94200
Al1520     Al  0.76399977  0.93952950  0.84766375     1.55600
O1521       O  0.82029070  0.97546826  0.75232013    -0.77500
C1522       C  0.76814135  0.98204056  0.91745996     0.98400
C1523       C  0.71282920  0.97113097  0.80029558     0.93300
O1524       O  0.73221672  0.98573739  0.77709580    -0.82800
O1525       O  0.97497681  0.72886252  0.22977467    -0.82300
C1526       C  0.56763318  0.66779262  0.13893253     0.97100
O1527       O  0.53915059  0.66147574  0.15020729    -0.71400
O1528       O  0.49169331  0.66535555  0.20371898    -0.75000
Al1529     Al  0.50423295  0.69020508  0.15712569     1.49000
C1530       C  0.50190224  0.66188374  0.24029425     0.92300
O1531       O  0.56128417  0.73264488  0.25809669    -0.81200
O1532       O  0.55277428  0.77861738  0.18228325    -0.74800
Al1533     Al  0.51882559  0.72603785  0.23808712     1.90100
O1534       O  0.59134879  0.72663868  0.20309272    -0.73900
O1535       O  0.53861066  0.74995522  0.11240582    -0.73700
O1536       O  0.57685940  0.69674916  0.13484637    -0.79400
O1537       O  0.01226803  0.71018701  0.10354899    -0.77600
O1538       O  0.52882074  0.71759892  0.18514879    -1.13700
O1539       O  0.96904515  0.72118078  0.16258334    -0.72900
C1540       C  0.95869584  0.73181697  0.19697926     0.97800
C1541       C  0.58852289  0.73082421  0.24150856     0.94200
Al1542     Al  0.56208293  0.73634648  0.16022016     1.55600
O1543       O  0.52160716  0.68189359  0.25513676    -0.77500
C1544       C  0.52048848  0.73342815  0.08983295     0.98400
C1545       C  0.53052001  0.78865148  0.20591225     0.93300
O1546       O  0.51378785  0.76971931  0.22719893    -0.82800
O1547       O  0.76576924  0.51147476  0.22737894    -0.82300
C1548       C  0.66573049  0.56854007  0.13859122     0.97100
O1549       O  0.69508709  0.57646521  0.13428482    -0.71400
O1550       O  0.72798821  0.59169460  0.19952604    -0.75000
Al1551     Al  0.73441705  0.56010423  0.15876491     1.49000
C1552       C  0.73651891  0.59026901  0.23674531     0.92300
O1553       O  0.67999878  0.53100154  0.25698338    -0.81200
O1554       O  0.71003301  0.97036261  0.16623420    -0.74800
Al1555     Al  0.72312537  0.52187875  0.23998095     1.90100
O1556       O  0.65943548  0.49769039  0.21111136    -0.73900
O1557       O  0.70203053  0.50597427  0.10649326    -0.73700
O1558       O  0.65817243  0.54074609  0.15123837    -0.79400
O1559       O  0.74512996  0.53470250  0.11212541    -0.77600
O1560       O  0.71423697  0.52935398  0.18660454    -1.13700
O1561       O  0.77667236  0.54820172  0.17996499    -0.72900
C1562       C  0.78556691  0.52592503  0.20450293     0.97800
C1563       C  0.65753248  0.51268263  0.24523813     0.94200
Al1564     Al  0.68491358  0.50481844  0.16187431     1.55600
O1565       O  0.73582202  0.56407373  0.25583186    -0.77500
C1566       C  0.72768056  0.51654861  0.09097457     0.98400
C1567       C  0.71883954  0.96147961  0.20218899     0.93300
O1568       O  0.71592568  0.98041159  0.23232351    -0.82800
C1569       C  0.59110139  0.64102773  0.13264553    -0.06000
C1570       C  0.62175245  0.64730722  0.11598304    -0.33400
C1571       C  0.64579466  0.62353550  0.11523580     0.35900
C1572       C  0.63966062  0.59269266  0.13167533    -0.06300
C1573       C  0.60847471  0.58596402  0.14614121    -0.33300
C1574       C  0.58451066  0.60963788  0.14699419     0.35800
H1575       H  0.62751023  0.67106968  0.10455299     0.16100
O1576       O  0.67552081  0.63124352  0.09980191    -0.60800
H1577       H  0.60289021  0.56258589  0.15898241     0.16100
O1578       O  0.55515997  0.60198210  0.16372049    -0.60900
H1579       H  0.55737149  0.60585264  0.19396941     0.43100
H1580       H  0.67524056  0.62394682  0.07051221     0.43100
C1581       C  0.75817856  0.99065875  0.96079285    -0.06000
C1582       C  0.77129713  0.51422395  0.98620102    -0.33400
C1583       C  0.76280275  0.52327544  0.02677348     0.35900
C1584       C  0.73712953  0.50785084  0.04757825    -0.06300
C1585       C  0.72098331  0.98859874  0.01974402    -0.33300
C1586       C  0.72935363  0.97949331  0.97903318     0.35800
H1587       H  0.79135202  0.52617572  0.97135445     0.16100
O1588       O  0.77990560  0.54727219  0.04564627    -0.60800
H1589       H  0.69866734  0.97976456  0.03274219     0.16100
O1590       O  0.70923160  0.95939934  0.95768964    -0.60900
H1591       H  0.69355322  0.97374415  0.94368206     0.43100
H1592       H  0.76865806  0.56743483  0.03792348     0.43100
C1593       C  0.99553532  0.76338612  0.96429643    -0.06000
C1594       C  0.52071593  0.77360423  0.98333780    -0.33400
C1595       C  0.53050391  0.76457311  0.02342003     0.35900
C1596       C  0.51093273  0.74433395  0.04767834    -0.06300
C1597       C  0.99192712  0.72746457  0.02395140    -0.33300
C1598       C  0.98276789  0.73573354  0.98351692     0.35800
H1599       H  0.53632694  0.78896592  0.96520052     0.16100
O1600       O  0.55952313  0.77517723  0.03812645    -0.60800
H1601       H  0.98134208  0.70628439  0.03783734     0.16100
O1602       O  0.96051060  0.71698540  0.96368700    -0.60900
H1603       H  0.97306797  0.69930171  0.95088709     0.43100
H1604       H  0.57493615  0.75755169  0.03221380     0.43100
C1605       C  0.90640098  0.85940307  0.88005603    -0.06000
C1606       C  0.91471568  0.89172185  0.87295360    -0.33400
C1607       C  0.89131260  0.91602587  0.87131711     0.35900
C1608       C  0.85852229  0.90862262  0.87736962    -0.06300
C1609       C  0.85042177  0.87660964  0.88699328    -0.33300
C1610       C  0.87387325  0.85225364  0.88845414     0.35800
H1611       H  0.93946206  0.89820497  0.86674214     0.16100
O1612       O  0.90087515  0.94677543  0.86251488    -0.60800
H1613       H  0.82552966  0.87002574  0.89188587     0.16100
O1614       O  0.86427532  0.82131802  0.89587688    -0.60900
H1615       H  0.86699938  0.81818098  0.92619250     0.43100
H1616       H  0.90190265  0.94794452  0.83178213     0.43100
C1617       C  0.96755930  0.58185363  0.30302299    -0.06000
C1618       C  0.95015288  0.59641587  0.27109420    -0.33400
C1619       C  0.96046212  0.62500053  0.25317208     0.35900
C1620       C  0.98945812  0.63948122  0.26634358    -0.06300
C1621       C  0.50478693  0.62235672  0.29971936    -0.33300
C1622       C  0.49332419  0.59448640  0.31952310     0.35800
H1623       H  0.92920603  0.58469379  0.25838422     0.16100
O1624       O  0.94201612  0.63840159  0.22230180    -0.60800
H1625       H  0.52716623  0.63294083  0.30996219     0.16100
O1626       O  0.51082550  0.58090884  0.35104953    -0.60900
H1627       H  0.50060221  0.58876967  0.37694463     0.43100
H1628       H  0.94650507  0.62544632  0.19711889     0.43100
C1629       C  0.50498486  0.88264587  0.24326814    -0.06000
C1630       C  0.48290675  0.86429300  0.22085374    -0.33400
C1631       C  0.49208318  0.83446511  0.20474488     0.35900
C1632       C  0.52368530  0.82298158  0.21071892    -0.06300
C1633       C  0.04587073  0.84807812  0.22889716    -0.33300
C1634       C  0.03586599  0.87763078  0.24502481     0.35800
H1635       H  0.45815387  0.87217869  0.21801314     0.16100
O1636       O  0.46948565  0.81577068  0.18551666    -0.60800
H1637       H  0.06999982  0.83952696  0.23530532     0.16100
O1638       O  0.05713914  0.89564577  0.26761023    -0.60900
H1639       H  0.06692201  0.91064090  0.24731478     0.43100
H1640       H  0.47450425  0.81714750  0.15547358     0.43100
C1641       C  0.57171983  0.99469295  0.29367430    -0.06000
C1642       C  0.59946679  0.97777885  0.30539136    -0.33400
C1643       C  0.62974539  0.98787702  0.29152198     0.35900
C1644       C  0.62932601  0.50673863  0.27160056    -0.06300
C1645       C  0.60604154  0.53066723  0.27630141    -0.33300
C1646       C  0.57559806  0.52305151  0.29201778     0.35800
H1647       H  0.59746471  0.95542357  0.32240520     0.16100
O1648       O  0.65612928  0.96893679  0.29912316    -0.60800
H1649       H  0.61062962  0.55473757  0.26499901     0.16100
O1650       O  0.55264139  0.54669744  0.29413813    -0.60900
H1651       H  0.54499128  0.54977247  0.26523707     0.43100
H1652       H  0.66782523  0.97981443  0.32190178     0.43100
C1653       C  0.81966625  0.51716219  0.20950620    -0.06000
C1654       C  0.82823693  0.48446845  0.21206464    -0.33400
C1655       C  0.85963753  0.97416043  0.22194883     0.35900
C1656       C  0.87913693  0.49844274  0.24375648    -0.06300
C1657       C  0.87148496  0.53105600  0.23837043    -0.33300
C1658       C  0.84212278  0.54053345  0.22112109     0.35800
H1659       H  0.81102042  0.46620385  0.20339700     0.16100
O1660       O  0.86555526  0.94211825  0.22809766    -0.60800
H1661       H  0.88753405  0.54929107  0.25003176     0.16100
O1662       O  0.83447460  0.57256284  0.21934104    -0.60900
H1663       H  0.82485918  0.57767742  0.24674844     0.43100
H1664       H  0.87856152  0.93533926  0.20381502     0.43100
C1665       C  0.85074637  0.85033333  0.37378674    -0.06000
C1666       C  0.88388124  0.84287045  0.37316222    -0.33400
C1667       C  0.90751261  0.86700197  0.37231872     0.35900
C1668       C  0.89854147  0.89972452  0.37234091    -0.06300
C1669       C  0.86548374  0.90714432  0.37542728    -0.33300
C1670       C  0.84185900  0.88300040  0.37638652     0.35800
H1671       H  0.89167569  0.81807199  0.37149287     0.16100
O1672       O  0.93922685  0.85813488  0.36959887    -0.60800
H1673       H  0.85767964  0.93197059  0.37575384     0.16100
O1674       O  0.81010228  0.89189308  0.37716802    -0.60900
H1675       H  0.80395974  0.89149211  0.40691495     0.43100
H1676       H  0.94346175  0.85542435  0.33949152     0.43100
C1677       C  0.75190990  0.86902538  0.24269255    -0.06000
C1678       C  0.76527515  0.89712497  0.25861904    -0.33400
C1679       C  0.75603189  0.92700738  0.24358320     0.35900
C1680       C  0.73298938  0.92955501  0.21142411    -0.06300
C1681       C  0.72166186  0.90135184  0.19269147    -0.33300
C1682       C  0.73110151  0.87105897  0.20810842     0.35800
H1683       H  0.78213486  0.89607105  0.28425380     0.16100
O1684       O  0.76939753  0.95374218  0.26131782    -0.60800
H1685       H  0.70413409  0.90276255  0.16790271     0.16100
O1686       O  0.71792580  0.84388990  0.19134620    -0.60900
H1687       H  0.73220778  0.83816370  0.16781296     0.43100
H1688       H  0.75856214  0.95620247  0.28858493     0.43100
C1689       C  0.77972381  0.67471824  0.28770692    -0.06000
C1690       C  0.78866209  0.66303993  0.24861269    -0.33400
C1691       C  0.77464255  0.63556571  0.23244483     0.35900
C1692       C  0.75152214  0.61867143  0.25564449    -0.06300
C1693       C  0.74459624  0.62848140  0.29643150    -0.33300
C1694       C  0.75849704  0.65662409  0.31252518     0.35800
H1695       H  0.80546938  0.67629421  0.22943256     0.16100
O1696       O  0.78407965  0.62511851  0.19390725    -0.60800
H1697       H  0.72742356  0.61520787  0.31496478     0.16100
O1698       O  0.74897835  0.66766474  0.35069402    -0.60900
H1699       H  0.76568375  0.65994527  0.37027805     0.43100
H1700       H  0.77158503  0.63824790  0.17387614     0.43100
C1701       C  0.86833418  0.76852482  0.23299255    -0.06000
C1702       C  0.86940804  0.74508666  0.20172088    -0.33400
C1703       C  0.89902836  0.73460149  0.18589957     0.35900
C1704       C  0.92752691  0.74798774  0.20141431    -0.06300
C1705       C  0.92586978  0.77375536  0.22955372    -0.33300
C1706       C  0.89649935  0.78401549  0.24539319     0.35800
H1707       H  0.84761315  0.73277301  0.19259345     0.16100
O1708       O  0.89997650  0.70917373  0.15892679    -0.60800
H1709       H  0.94766135  0.78417402  0.24202369     0.16100
O1710       O  0.89584898  0.80672155  0.27621395    -0.60900
H1711       H  0.89211458  0.82741086  0.26173095     0.43100
H1712       H  0.90102424  0.68977286  0.17676297     0.43100
C1713       C  0.61777965  0.73588014  0.26619607    -0.06000
C1714       C  0.64464237  0.71685167  0.25784770    -0.33400
C1715       C  0.67492409  0.72574689  0.27207565     0.35900
C1716       C  0.67906350  0.75501331  0.29396117    -0.06300
C1717       C  0.65162852  0.77253915  0.30561430    -0.33300
C1718       C  0.62099551  0.76294776  0.29214642     0.35800
H1719       H  0.64239505  0.69576353  0.23837750     0.16100
O1720       O  0.70060385  0.70657873  0.26183131    -0.60800
H1721       H  0.65407019  0.79477013  0.32271014     0.16100
O1722       O  0.59496495  0.78211542  0.30066263    -0.60900
H1723       H  0.58567241  0.77327187  0.32660318     0.43100
H1724       H  0.70194601  0.69049537  0.28445683     0.43100
C1725       C  0.74323966  0.74061822  0.53920441    -0.06000
C1726       C  0.77415401  0.73348988  0.52401118    -0.33400
C1727       C  0.78291257  0.74069492  0.48297136     0.35900
C1728       C  0.76059504  0.75528948  0.45574481    -0.06300
C1729       C  0.72939581  0.76166693  0.47067194    -0.33300
C1730       C  0.72060677  0.75433404  0.51167064     0.35800
H1731       H  0.79192969  0.72260192  0.54420709     0.16100
O1732       O  0.81351919  0.73348714  0.47008280    -0.60800
H1733       H  0.71159827  0.77256352  0.45051821     0.16100
O1734       O  0.68978003  0.76083681  0.52435256    -0.60900
H1735       H  0.67774049  0.74063290  0.51979044     0.43100
H1736       H  0.82643102  0.75279934  0.47665107     0.43100
C1737       C  0.57496226  0.77698843  0.79169600    -0.06000
C1738       C  0.59393324  0.75419041  0.81262070    -0.33400
C1739       C  0.62338799  0.74387784  0.79544362     0.35900
C1740       C  0.63400453  0.75681637  0.75724543    -0.06300
C1741       C  0.61569346  0.78122199  0.73845414    -0.33300
C1742       C  0.58665565  0.79122759  0.75524568     0.35800
H1743       H  0.58507439  0.74306502  0.84079176     0.16100
O1744       O  0.64105517  0.72086974  0.81569731    -0.60800
H1745       H  0.62336217  0.79233558  0.70969482     0.16100
O1746       O  0.56898719  0.81409704  0.73462394    -0.60900
H1747       H  0.57932854  0.83481852  0.74155758     0.43100
H1748       H  0.63288118  0.70009223  0.80512542     0.43100
C1749       C  0.82666544  0.72701971  0.71786317    -0.06000
C1750       C  0.83671951  0.71671806  0.75708409    -0.33400
C1751       C  0.86418584  0.72925730  0.77538987     0.35900
C1752       C  0.88276093  0.75232981  0.75424244    -0.06300
C1753       C  0.87394717  0.76135650  0.71370008    -0.33300
C1754       C  0.84573200  0.74902089  0.69555854     0.35800
H1755       H  0.82224228  0.69982598  0.77457939     0.16100
O1756       O  0.87299470  0.71831233  0.81395562    -0.60800
H1757       H  0.88816010  0.77882736  0.69689826     0.16100
O1758       O  0.83567586  0.76056879  0.65785695    -0.60900
H1759       H  0.84352437  0.74473290  0.63722311     0.43100
H1760       H  0.85956630  0.73061809  0.83385253     0.43100
C1761       C  0.74176964  0.62600666  0.75089258    -0.06000
C1762       C  0.74424683  0.59957624  0.72444874    -0.33400
C1763       C  0.75575323  0.57035215  0.73853965     0.35900
C1764       C  0.76412434  0.56627228  0.78091826    -0.06300
C1765       C  0.76011918  0.59229079  0.80820687    -0.33300
C1766       C  0.74932067  0.62221158  0.79334163     0.35800
H1767       H  0.73869684  0.60185875  0.69168663     0.16100
O1768       O  0.76052077  0.54657931  0.70962233    -0.60800
H1769       H  0.76602747  0.58968331  0.84078037     0.16100
O1770       O  0.74744316  0.64769421  0.82013503    -0.60900
H1771       H  0.76903622  0.65772156  0.81939560     0.43100
H1772       H  0.73878454  0.53879309  0.70213164     0.43100
C1773       C  0.76673690  0.88076027  0.74234103    -0.06000
C1774       C  0.77949639  0.85236192  0.75865778    -0.33400
C1775       C  0.77103240  0.82272166  0.74212186     0.35900
C1776       C  0.74860001  0.82088812  0.70925389    -0.06300
C1777       C  0.73855621  0.84931620  0.68979545    -0.33300
C1778       C  0.74759474  0.87927950  0.70608999     0.35800
H1779       H  0.79500737  0.85301967  0.78567414     0.16100
O1780       O  0.78329278  0.79549699  0.76022095    -0.60800
H1781       H  0.72186954  0.84839319  0.66402185     0.16100
O1782       O  0.73579625  0.90674388  0.68810873    -0.60900
H1783       H  0.71408017  0.90977848  0.70023544     0.43100
H1784       H  0.80440915  0.79202574  0.74664035     0.43100
C1785       C  0.98819181  0.99487391  0.45773404    -0.06000
C1786       C  0.51890459  0.49820790  0.47669140    -0.33400
C1787       C  0.52949878  0.50809049  0.51595299     0.35900
C1788       C  0.50718735  0.51817022  0.54638011    -0.06300
C1789       C  0.97666220  0.02036437  0.52441974    -0.33300
C1790       C  0.96672735  0.01118034  0.48454719     0.35800
H1791       H  0.53664791  0.49029617  0.45425486     0.16100
O1792       O  0.56186673  0.50787337  0.52403627    -0.60800
H1793       H  0.95954809  0.03221824  0.54466229     0.16100
O1794       O  0.93579102  0.01784981  0.47256705    -0.60900
H1795       H  0.93683175  0.03927876  0.45919377     0.43100
H1796       H  0.56949819  0.52954432  0.51601196     0.43100
C1797       C  0.64962667  0.65637226  0.63094398    -0.06000
C1798       C  0.65836001  0.62406970  0.62450876    -0.33400
C1799       C  0.63533153  0.59944446  0.62491695     0.35900
C1800       C  0.60247913  0.60655200  0.63171240    -0.06300
C1801       C  0.59350804  0.63888344  0.63655440    -0.33300
C1802       C  0.61655528  0.66354284  0.63639669     0.35800
H1803       H  0.68340249  0.61756141  0.62048261     0.16100
O1804       O  0.64551850  0.56834795  0.61990850    -0.60800
H1805       H  0.56859401  0.64506421  0.64242949     0.16100
O1806       O  0.60644033  0.69436598  0.64377888    -0.60900
H1807       H  0.60079958  0.70316863  0.61610859     0.43100
H1808       H  0.64297276  0.56384220  0.58987317     0.43100
C1809       C  0.62003147  0.51332626  0.76490573    -0.06000
C1810       C  0.62028036  0.49045382  0.79702614    -0.33400
C1811       C  0.64950616  0.47773317  0.81175677     0.35900
C1812       C  0.67868952  0.97712820  0.79315261    -0.06300
C1813       C  0.66386717  0.95821354  0.76332331    -0.33300
C1814       C  0.63565284  0.96840835  0.74433437     0.35800
H1815       H  0.59783572  0.48069388  0.80840660     0.16100
O1816       O  0.64906622  0.45352139  0.84062035    -0.60800
H1817       H  0.67567306  0.93666580  0.75208467     0.16100
O1818       O  0.62358668  0.94993735  0.71274503    -0.60900
H1819       H  0.63669571  0.95537020  0.68798016     0.43100
H1820       H  0.64845683  0.43337386  0.82426560     0.43100
C1821       C  0.92732825  0.51475576  0.71264050    -0.06000
C1822       C  0.90430751  0.53712123  0.72564911    -0.33400
C1823       C  0.87565523  0.52682553  0.74397626     0.35900
C1824       C  0.86946355  0.49374958  0.74875922    -0.06300
C1825       C  0.89095869  0.47134062  0.73198790    -0.33300
C1826       C  0.91996966  0.48167348  0.71431187     0.35800
H1827       H  0.90955125  0.56254403  0.72450257     0.16100
O1828       O  0.85445324  0.54931289  0.75893987    -0.60800
H1829       H  0.88108331  0.95680952  0.72153544     0.16100
O1830       O  0.94181998  0.45921973  0.70098844    -0.60900
H1831       H  0.93964245  0.45884943  0.67033983     0.43100
H1832       H  0.83759306  0.55129729  0.73732685     0.43100
C1833       C  0.98666487  0.68140205  0.80064308    -0.06000
C1834       C  0.96427750  0.65631469  0.80336158    -0.33400
C1835       C  0.97194788  0.62573270  0.78765832     0.35900
C1836       C  0.50725324  0.62108255  0.76745126    -0.06300
C1837       C  0.52561651  0.64825179  0.75840621    -0.33300
C1838       C  0.01789126  0.67467628  0.78556686     0.35800
H1839       H  0.94019251  0.66097182  0.81473857     0.16100
O1840       O  0.94897370  0.60219657  0.78752431    -0.60800
H1841       H  0.54587599  0.64657279  0.73729722     0.16100
O1842       O  0.53507644  0.70433514  0.76305485    -0.60900
H1843       H  0.55364477  0.70420651  0.78231101     0.43100
H1844       H  0.93653855  0.60578357  0.76167872     0.43100
C1845       C  0.52497834  0.92571473  0.70439755    -0.06000
C1846       C  0.49598148  0.91174659  0.69146601    -0.33400
C1847       C  0.48360130  0.88481446  0.71246634     0.35900
C1848       C  0.50060235  0.87173233  0.74638920    -0.06300
C1849       C  0.53044260  0.88476076  0.75722946    -0.33300
C1850       C  0.54244883  0.91148600  0.73691432     0.35800
H1851       H  0.48187814  0.92304977  0.66726075     0.16100
O1852       O  0.45429541  0.87268955  0.70111800    -0.60800
H1853       H  0.04601510  0.87466435  0.77496074     0.16100
O1854       O  0.57058050  0.92480559  0.75075720    -0.60900
H1855       H  0.56481511  0.93682124  0.77628715     0.43100
H1856       H  0.43835063  0.88458380  0.71813520     0.43100
loop_ 
_geom_bond_atom_site_label_1 
_geom_bond_atom_site_label_2 
_geom_bond_distance 
_geom_bond_site_symmetry_2 
_ccdc_geom_bond_type 
O1           C16   1.258       .  A
O1         Al473   1.884       .  S
C2           O12   1.274       .  A
C2            O3   1.266       .  A
C2          C408   1.497       .  S
O3           Al5   1.901       .  S
O4            C6   1.255   1_565  A
O4           Al5   1.879   1_565  S
Al5         O477   1.891       .  S
Al5         O479   1.931   1_545  S
Al5          O14   1.784       .  S
C6           O19   1.266       .  A
C6          C417   1.485   1_545  S
O7           C17   1.257       .  A
O7           Al9   1.915       .  S
O8           C21   1.268       .  A
O8         Al946   1.938       .  S
Al9          O19   1.931       .  S
Al9         O465   1.886   1_545  S
Al9         O950   1.863   1_455  S
Al9          O14   1.790       .  S
O10         C945   1.254       .  A
O10        Al946   1.876       .  S
O11         C948   1.255       .  A
O11        Al946   1.904       .  S
O12         Al18   1.941       .  S
O13         C484   1.257       .  A
O13        Al469   1.910       .  S
O14         Al18   1.782       .  S
O15          C16   1.266       .  A
O15        Al469   1.937       .  S
C16         C453   1.471       .  S
C17         O938   1.255       .  A
C17         C444   1.477       .  S
Al18        O936   1.935   1_455  S
Al18        O938   1.879       .  S
Al18        O939   1.908   1_455  S
C20         O939   1.256   1_455  A
C20         O477   1.252       .  A
C20         C396   1.488       .  S
C21          O22   1.258       .  A
C21         C429   1.473       .  S
O22        Al937   1.876       .  S
O23          C38   1.265       .  A
O23         Al31   1.906       .  S
C24          O34   1.278       .  A
C24          O25   1.269       .  A
C24         C405   1.494       .  S
O25         Al27   1.891       .  S
O26          C28   1.261       .  A
O26         Al27   1.916       .  S
Al27         O35   1.908       .  S
Al27         O37   1.922       .  S
Al27         O36   1.787       .  S
C28          O41   1.256       .  A
C28         C348   1.469       .  S
O29          C39   1.251       .  A
O29         Al31   1.893       .  S
O30          C43   1.272       .  A
O30         Al40   1.949       .  S
Al31         O44   1.841       .  S
Al31         O41   1.901       .  S
Al31         O36   1.787       .  S
O32          C39   1.254       .  A
O32         Al40   1.885       .  S
O33          C42   1.254       .  A
O33         Al40   1.905       .  S
O34         Al40   1.953       .  S
O35          C42   1.253       .  A
O36         Al40   1.781       .  S
O37          C38   1.269       .  A
C38         C384   1.464       .  S
C39         C369   1.469       .  S
C42         C333   1.496       .  S
C43          O44   1.253       .  A
C43         C357   1.486       .  S
O45          C60   1.255       .  A
O45         Al53   1.846       .  S
C46          O56   1.265       .  A
C46          O47   1.274       .  A
C46         C273   1.497       .  S
O47         Al49   1.945       .  S
O48          C50   1.252       .  A
O48         Al49   1.869       .  S
Al49         O57   1.893       .  S
Al49         O59   1.949       .  S
Al49         O58   1.773       .  S
C50          O63   1.252       .  A
C50         C285   1.473       .  S
O51          C61   1.258       .  A
O51         Al53   1.883       .  S
O52          C65   1.267       .  A
O52         Al62   1.929       .  S
Al53         O66   1.897       .  S
Al53         O63   1.904       .  S
Al53         O58   1.791       .  S
O54          C61   1.266       .  A
O54         Al62   1.920       .  S
O55          C64   1.258       .  A
O55         Al62   1.919       .  S
O56         Al62   1.894       .  S
O57          C64   1.254       .  A
O58         Al62   1.782       .  S
O59          C60   1.274       .  A
C60         C324   1.482       .  S
C61         C309   1.453       .  S
C64         C336   1.497       .  S
C65          O66   1.261       .  A
C65         C297   1.472       .  S
O67          C82   1.257       .  A
O67       Al1003   1.867   1_455  S
C68          O78   1.265       .  A
C68          O69   1.275       .  A
C68         C276   1.501       .  S
O69         Al71   1.954       .  S
O70          C72   1.255       .  A
O70         Al71   1.878       .  S
Al71       O1007   1.898       .  S
Al71       O1009   1.952       .  S
Al71         O80   1.770       .  S
C72          O85   1.260       .  A
C72        C1165   1.490       .  S
O73          C83   1.263       .  A
O73         Al75   1.909       .  S
O74          C87   1.267       .  A
O74         Al84   1.919   1_545  S
Al75         O85   1.935       .  S
Al75        O995   1.864       .  S
Al75        O552   1.912       .  S
Al75         O80   1.785       .  S
O76         C547   1.253   1_545  A
O76         Al84   1.890   1_545  S
O77         C550   1.243       .  A
O77         Al84   1.881       .  S
O78        Al548   1.893       .  S
O79        C1014   1.254       .  A
O79        Al999   1.897       .  S
O80        Al548   1.784       .  S
O81          C82   1.269       .  A
O81        Al999   1.938   1_455  S
C82         C249   1.475       .  S
C83         O540   1.265       .  A
C83         C728   1.465       .  S
Al84        O542   1.919       .  S
Al84        O544   1.796       .  S
C86         O541   1.259       .  A
C86        O1007   1.256       .  A
C86         C393   1.495       .  S
C87          O88   1.263       .  A
C87         C225   1.465       .  S
O88        Al539   1.892   1_545  S
O89         C104   1.253       .  A
O89         Al97   1.847       .  S
C90         O100   1.271       .  A
C90          O91   1.281       .  A
C90         C213   1.500       .  S
O91         Al93   1.961       .  S
O92          C94   1.252       .  A
O92         Al93   1.869       .  S
Al93        O101   1.903       .  S
Al93        O103   1.942       .  S
Al93        O102   1.782       .  S
C94         O107   1.253       .  A
C94         C360   1.465       .  S
O95         C105   1.256       .  A
O95         Al97   1.913       .  S
O96         C109   1.271       .  A
O96       Al1034   1.916   1_455  S
Al97        O107   1.897       .  S
Al97       O1038   1.906       .  S
Al97        O102   1.794       .  S
O98        C1033   1.254   1_455  A
O98       Al1034   1.890   1_455  S
O99        C1036   1.248       .  A
O99       Al1034   1.893       .  S
O100       Al106   1.889       .  S
O101        C108   1.251       .  A
O102       Al106   1.786       .  S
O103        C104   1.269       .  A
C104        C441   1.484       .  S
C105       O1026   1.253       .  A
C105       C1384   1.476       .  S
Al106      O1024   1.915       .  S
Al106      O1026   1.877       .  S
Al106      O1027   1.887       .  S
C108       O1027   1.247       .  A
C108        C201   1.486       .  S
C109        O110   1.268       .  A
C109        C345   1.459       .  S
O110      Al1025   1.904   1_455  S
O111        C126   1.263       .  A
O111       Al583   1.892   1_545  S
C112        O122   1.282       .  A
C112        O113   1.283       .  A
C112        C216   1.499       .  S
O113       Al579   1.936       .  S
O114        C116   1.252       .  A
O114       Al579   1.883       .  S
Al115       O123   1.913       .  S
Al115       O125   1.935   1_565  S
Al115       O577   1.920       .  S
Al115       O578   1.909   1_565  S
Al115       O588   1.789       .  S
C116        O129   1.254       .  A
C116        C896   1.476       .  S
O117        C127   1.248       .  A
O117       Al119   1.897       .  S
O118        C131   1.275       .  A
O118       Al128   1.921       .  S
Al119       O132   1.911       .  S
Al119       O129   1.905       .  S
Al119       O575   1.853       .  S
Al119       O124   1.786       .  S
O120        C127   1.251       .  A
O120       Al128   1.896       .  S
O121        C130   1.247       .  A
O121       Al128   1.902       .  S
O122       Al128   1.925       .  S
O123        C594   1.256       .  A
O124       Al128   1.786       .  S
O124       Al579   1.784       .  S
O125        C126   1.273       .  A
C126        C372   1.475       .  S
C127        C381   1.479       .  S
C130        O587   1.246       .  A
C130        C189   1.499       .  S
C131        O132   1.272       .  A
C131        C420   1.480       .  S
O133        C148   1.266       .  A
O133      Al1069   1.884       .  S
C134        O144   1.284       .  A
C134        O135   1.273       .  A
C134        C177   1.501       .  S
O135       Al137   1.894       .  S
O136        C138   1.253   1_655  A
O136       Al137   1.895   1_655  S
Al137      O1073   1.899       .  S
Al137      O1075   1.910   1_455  S
Al137       O146   1.788       .  S
C138        O151   1.254       .  A
C138       C1156   1.482   1_455  S
O139        C149   1.253       .  A
O139       Al141   1.886       .  S
O140        C153   1.268       .  A
O140       Al150   1.953       .  S
Al141       O154   1.858       .  S
Al141       O151   1.913       .  S
Al141      O1061   1.899   1_455  S
Al141       O146   1.787       .  S
O142        C149   1.255       .  A
O142       Al150   1.877       .  S
O143        C152   1.252       .  A
O143       Al150   1.913       .  S
O144       Al150   1.971       .  S
O145       C1080   1.239       .  A
O145      Al1065   1.855       .  S
O146       Al150   1.779       .  S
O147        C148   1.270       .  A
O147      Al1065   1.907       .  S
C148        C312   1.467       .  S
C149        C321   1.460       .  S
C152       O1073   1.249       .  A
C152        C204   1.494       .  S
C153        O154   1.255       .  A
C153        C240   1.486       .  S
O155        C170   1.258       .  A
O155       Al163   1.868       .  S
C156        O166   1.270       .  A
C156        O157   1.272       .  A
C156        C180   1.500       .  S
O157       Al159   1.934       .  S
O158        C160   1.252       .  A
O158       Al159   1.878       .  S
Al159       O167   1.890       .  S
Al159       O169   1.936       .  S
Al159       O168   1.780       .  S
C160        O173   1.253       .  A
C160        C300   1.471       .  S
O161        C171   1.265       .  A
O161       Al163   1.908       .  S
O162        C175   1.269       .  A
O162       Al636   1.939       .  S
Al163       O173   1.905       .  S
Al163       O640   1.894   1_545  S
Al163       O168   1.786       .  S
O164        C171   1.266       .  A
O164       Al172   1.922       .  S
O165        C174   1.258       .  A
O165       Al172   1.921       .  S
O166       Al172   1.910       .  S
O167        C174   1.252       .  A
O168       Al172   1.785       .  S
O169        C170   1.269       .  A
C170        C261   1.465       .  S
C171        C252   1.465       .  S
Al172       O626   1.942   1_545  S
C174        C192   1.497       .  S
C175        O176   1.258       .  A
C175        C288   1.477       .  S
O176       Al627   1.893       .  S
C177        C178   1.408       .  A
C177        C182   1.416       .  A
C178        C179   1.409       .  A
C178        H183   1.083       .  S
C179        C180   1.417       .  A
C179        O184   1.371       .  S
C180        C181   1.406       .  A
C181        C182   1.405       .  A
C181        H185   1.083       .  S
C182        O186   1.372       .  S
O184        H188   0.992       .  S
O186        H187   0.992       .  S
C189        C194   1.413       .  A
C189        C654   1.407       .  A
C190        C191   1.403   1_556  A
C190        C653   1.407   1_545  A
C190        H195   1.083       .  S
C191        C192   1.415       .  A
C191        O196   1.372       .  S
C192        C657   1.407   1_545  A
C193        C194   1.408   1_554  A
C193        C656   1.408       .  A
C193        H197   1.083       .  S
C194        O198   1.371       .  S
O196        H200   0.992       .  S
O198        H199   0.992       .  S
C201        C206   1.408       .  A
C201       C1130   1.409       .  A
C202        C203   1.403   1_556  A
C202       C1129   1.410   1_455  A
C202        H207   1.083       .  S
C203        C204   1.410       .  A
C203        O208   1.371       .  S
C204       C1133   1.410   1_455  A
C205        C206   1.400   1_554  A
C205       C1132   1.410       .  A
C205        H209   1.083       .  S
C206        O210   1.372       .  S
O208        H212   0.992       .  S
O210        H211   0.992       .  S
C213        C214   1.408       .  A
C213        C218   1.414       .  A
C214        C215   1.401       .  A
C214        H219   1.083       .  S
C215        C216   1.414       .  A
C215        O220   1.372       .  S
C216        C217   1.410       .  A
C217        C218   1.409       .  A
C217        H221   1.083       .  S
C218        O222   1.371       .  S
O220        H224   0.992       .  S
O222        H223   0.992       .  S
C225        C226   1.396       .  A
C225       C1158   1.407       .  A
C226        C227   1.388       .  A
C226        H231   1.084       .  S
C227        C228   1.414       .  A
C227        O232   1.373       .  S
C228       C1066   1.481       .  S
C228       C1157   1.408       .  A
C229        C230   1.408   1_455  A
C229       C1156   1.408   1_455  A
C229        H233   1.083       .  S
C230       C1153   1.408       .  A
C230        O234   1.371   1_655  S
O232        H236   0.992       .  S
O234        H235   0.992       .  S
C237       C1000   1.496   1_455  S
C237        C238   1.412       .  A
C237       C1170   1.415       .  A
C238        C239   1.417       .  A
C238        H243   1.083   1_455  S
C239        C240   1.411       .  A
C239        O244   1.371       .  S
C240       C1169   1.401       .  A
C241        C242   1.388       .  A
C241       C1168   1.405       .  A
C241        H245   1.084       .  S
C242       C1165   1.410       .  A
C242        O246   1.373       .  S
O244        H248   0.992   1_455  S
O246        H247   0.992       .  S
C249        C250   1.401       .  A
C249        C718   1.414       .  A
C250        C251   1.400       .  A
C250        H255   1.084       .  S
C251        C716   1.409       .  A
C251        O256   1.372       .  S
C252        C253   1.394       .  A
C252        C715   1.409   1_545  A
C253        C254   1.398       .  A
C253        H257   1.084       .  S
C254        C713   1.418   1_545  A
C254        O258   1.372       .  S
O256        H260   0.992       .  S
O258        H259   0.992       .  S
C261        C262   1.407   1_545  A
C261        C266   1.403       .  A
C262        C727   1.401       .  A
C262        H267   1.084       .  S
C263        C726   1.400       .  A
C263        C728   1.401       .  A
C263        O268   1.371       .  S
C264        C547   1.466       .  S
C264        C265   1.404   1_565  A
C264        C727   1.403       .  A
C265        C266   1.395       .  A
C265        H269   1.084       .  S
C266        O270   1.372       .  S
O268        H272   0.991       .  S
O270        H271   0.992       .  S
C273        C274   1.409       .  A
C273        C278   1.412       .  A
C274        C275   1.407       .  A
C274        H279   1.083       .  S
C275        C276   1.414       .  A
C275        O280   1.371       .  S
C276        C277   1.410       .  A
C277        C278   1.405       .  A
C277        H281   1.083       .  S
C278        O282   1.371       .  S
O280        H284   0.992       .  S
O282        H283   0.991       .  S
C285        C286   1.395       .  A
C285        C290   1.413       .  A
C286        C287   1.385       .  A
C286        H291   1.083       .  S
C287        C288   1.415       .  A
C287        O292   1.372       .  S
C288        C289   1.404       .  A
C289        C290   1.408       .  A
C289        H293   1.083       .  S
C290        O294   1.371       .  S
O292        H296   0.992       .  S
O294        H295   0.992       .  S
C297        C298   1.402       .  A
C297        C302   1.409       .  A
C298        C299   1.390       .  A
C298        H303   1.085       .  S
C299        C300   1.407       .  A
C299        O304   1.373       .  S
C300        C301   1.405       .  A
C301        C302   1.407       .  A
C301        H305   1.083       .  S
C302        O306   1.371       .  S
O304        H308   0.992       .  S
O306        H307   0.991       .  S
C309        C310   1.403       .  A
C309        C314   1.399       .  A
C310        C311   1.399       .  A
C310        H315   1.084       .  S
C311        C312   1.406       .  A
C311        O316   1.372       .  S
C312        C313   1.407       .  A
C313        C314   1.391       .  A
C313        H317   1.084       .  S
C314        O318   1.372       .  S
O316        H320   0.992       .  S
O318        H319   0.992       .  S
C321        C322   1.393       .  A
C321        C326   1.407       .  A
C322        C323   1.391       .  A
C322        H327   1.085       .  S
C323        C324   1.420       .  A
C323        O328   1.372       .  S
C324        C325   1.405       .  A
C325        C326   1.402       .  A
C325        H329   1.083       .  S
C326        O330   1.372       .  S
O328        H332   0.992       .  S
O330        H331   0.991       .  S
C333        C334   1.407       .  A
C333        C338   1.414       .  A
C334        C335   1.406       .  A
C334        H339   1.083       .  S
C335        C336   1.413       .  A
C335        O340   1.371       .  S
C336        C337   1.408       .  A
C337        C338   1.403       .  A
C337        H341   1.083       .  S
C338        O342   1.372       .  S
O340        H344   0.992       .  S
O342        H343   0.992       .  S
C345        C346   1.405       .  A
C345        C350   1.402       .  A
C346        C347   1.405       .  A
C346        H351   1.084       .  S
C347        C348   1.407       .  A
C347        O352   1.372       .  S
C348        C349   1.402       .  A
C349        C350   1.390       .  A
C349        H353   1.082       .  S
C350        O354   1.371       .  S
O352        H356   0.992       .  S
O354        H355   0.992       .  S
C357        C358   1.406       .  A
C357        C362   1.421       .  A
C358        C359   1.406       .  A
C358        H363   1.083       .  S
C359        C360   1.409       .  A
C359        O364   1.372       .  S
C360        C361   1.393       .  A
C361        C362   1.389       .  A
C361        H365   1.085       .  S
C362        O366   1.372       .  S
O364        H368   0.992       .  S
O366        H367   0.991       .  S
C369        C370   1.395       .  A
C369        C374   1.412       .  A
C370        C371   1.392       .  A
C370        H375   1.085       .  S
C371        C372   1.414       .  A
C371        O376   1.371       .  S
C372        C373   1.402       .  A
C373        C374   1.407       .  A
C373        H377   1.083       .  S
C374        O378   1.372       .  S
O376        H380   0.991       .  S
O378        H379   0.992       .  S
C381        C382   1.407       .  A
C381        C386   1.411       .  A
C382        C383   1.406       .  A
C382        H387   1.083       .  S
C383        C384   1.407       .  A
C383        O388   1.371       .  S
C384        C385   1.397       .  A
C385        C386   1.392       .  A
C385        H389   1.082       .  S
C386        O390   1.373       .  S
O388        H392   0.992       .  S
O390        H391   0.992       .  S
C393        C398   1.414       .  A
C393       C1786   1.406       .  A
C394        C395   1.398       .  A
C394       C1785   1.404   1_455  A
C394        H399   1.083       .  S
C395        C396   1.415   1_565  A
C395        O400   1.372       .  S
C396       C1789   1.405   1_455  A
C397        C398   1.407       .  A
C397       C1788   1.408       .  A
C397        H401   1.083       .  S
C398        O402   1.371       .  S
O400        H404   0.992   1_565  S
O402        H403   0.992       .  S
C405        C406   1.406       .  A
C405        C410   1.413       .  A
C406        C407   1.407       .  A
C406        H411   1.084       .  S
C407        C408   1.417       .  A
C407        O412   1.371       .  S
C408        C409   1.406       .  A
C409        C410   1.401       .  A
C409        H413   1.083       .  S
C410        O414   1.372       .  S
O412        H416   0.992       .  S
O414        H415   0.992       .  S
C417        C418   1.406   1_565  A
C417        C886   1.420       .  A
C418        C419   1.407       .  A
C418        H423   1.083       .  S
C419        C884   1.408   1_545  A
C419        O424   1.371       .  S
C420        C421   1.407       .  A
C420        C883   1.409       .  A
C421        C422   1.394       .  A
C421        H425   1.084       .  S
C422        C881   1.403       .  A
C422        O426   1.372       .  S
O424        H428   0.992       .  S
O426        H427   0.992       .  S
C429        C430   1.399       .  A
C429        C434   1.411   1_545  A
C430        C431   1.400       .  A
C430        H435   1.083       .  S
C431        C432   1.413       .  A
C431        O436   1.372       .  S
C432        C580   1.475   1_545  S
C432        C433   1.400   1_545  A
C433        C434   1.401       .  A
C433        H901   1.084       .  S
C434        O438   1.370       .  S
O436        H440   0.992       .  S
H437        C897   1.083       .  S
O438        H439   0.992       .  S
C441        C442   1.404       .  A
C441        C446   1.418       .  A
C442        C443   1.407       .  A
C442        H447   1.083       .  S
C443       C1372   1.412       .  A
C443        O448   1.372       .  S
C444        C445   1.395       .  A
C444       C1371   1.412   1_455  A
C445       C1374   1.395       .  A
C445        H449   1.085       .  S
C446       C1373   1.391       .  A
C446       O1378   1.372       .  S
O448        H452   0.991       .  S
O450       C1374   1.374       .  S
O450        H451   0.990       .  S
C453        C454   1.405       .  A
C453        C458   1.405       .  A
C454        C455   1.411   1_455  A
C454        H459   1.083   1_455  S
C455        C456   1.412   1_655  A
C455        O460   1.371       .  S
C456       C1033   1.485   1_455  S
C456        C457   1.405       .  A
C457        C458   1.390       .  A
C457       H1389   1.083       .  S
C458        O462   1.374       .  S
O460        H464   0.992       .  S
H461       C1385   1.083       .  S
O462        H463   0.992       .  S
O465        C480   1.263       .  A
C466        O476   1.272       .  A
C466        O467   1.265       .  A
C466        C872   1.496       .  S
O467       Al469   1.902       .  S
O468        C470   1.264       .  A
O468       Al469   1.912       .  S
Al469       O478   1.786       .  S
C470        O483   1.265       .  A
C470        C881   1.469       .  S
O471        C481   1.255       .  A
O471       Al473   1.915       .  S
O472        C485   1.271       .  A
O472      Al1410   1.951       .  S
Al473      O1414   1.869   1_455  S
Al473       O483   1.910       .  S
Al473       O478   1.793       .  S
O474       C1409   1.254       .  A
O474      Al1410   1.877       .  S
O475       C1412   1.257       .  A
O475      Al1410   1.905       .  S
O476       Al482   1.942       .  S
O478       Al482   1.783       .  S
O479        C480   1.269       .  A
C480        C917   1.465       .  S
C481       O1402   1.252       .  A
C481        C908   1.467       .  S
Al482      O1400   1.949   1_455  S
Al482      O1402   1.878       .  S
Al482      O1403   1.901   1_455  S
C484       O1403   1.256   1_455  A
C484        C860   1.493       .  S
C485        O486   1.256       .  A
C485        C893   1.469       .  S
O486      Al1401   1.868       .  S
O487        C502   1.266       .  A
O487       Al495   1.895       .  S
C488        O498   1.279       .  A
C488        O489   1.276       .  A
C488        C869   1.505       .  S
O489       Al491   1.918       .  S
O490        C492   1.255       .  A
O490       Al491   1.884       .  S
Al491       O499   1.906       .  S
Al491       O501   1.937       .  S
Al491       O500   1.787       .  S
C492        O505   1.256       .  A
C492        C812   1.481       .  S
O493        C503   1.251       .  A
O493       Al495   1.895       .  S
O494        C507   1.265       .  A
O494       Al504   1.922       .  S
Al495       O508   1.872       .  S
Al495       O505   1.914       .  S
Al495       O500   1.797       .  S
O496        C503   1.249       .  A
O496       Al504   1.845       .  S
O497        C506   1.244       .  A
O497       Al504   1.875       .  S
O498       Al504   1.946       .  S
O499        C506   1.249       .  A
O500       Al504   1.780       .  S
O501        C502   1.276       .  A
C502        C848   1.483       .  S
C503        C833   1.475       .  S
C506        C797   1.489       .  S
C507        O508   1.258       .  A
C507        C821   1.463       .  S
O509        C524   1.255       .  A
O509       Al517   1.839       .  S
C510        O520   1.264       .  A
C510        O511   1.274       .  A
C510        C737   1.502       .  S
O511       Al513   1.954       .  S
O512        C514   1.252       .  A
O512       Al513   1.872       .  S
Al513       O521   1.885       .  S
Al513       O523   1.961       .  S
Al513       O522   1.775       .  S
C514        O527   1.254       .  A
C514        C749   1.474       .  S
O515        C525   1.260       .  A
O515       Al517   1.882       .  S
O516        C529   1.265       .  A
O516       Al526   1.928       .  S
Al517       O530   1.899       .  S
Al517       O527   1.913       .  S
Al517       O522   1.789       .  S
O518        C525   1.268       .  A
O518       Al526   1.917       .  S
O519        C528   1.258       .  A
O519       Al526   1.913       .  S
O520       Al526   1.892       .  S
O521        C528   1.253       .  A
O522       Al526   1.781       .  S
O523        C524   1.275       .  A
C524        C788   1.482       .  S
C525        C773   1.453       .  S
C528        C800   1.490       .  S
C529        O530   1.261       .  A
C529        C761   1.475       .  S
O531        C546   1.256       .  A
O531      Al1467   1.857   1_455  S
C532        O542   1.277       .  A
C532        O533   1.281       .  A
C532        C740   1.505       .  S
O533       Al535   1.944       .  S
O534        C536   1.247       .  A
O534       Al535   1.872       .  S
Al535      O1471   1.874       .  S
Al535      O1473   1.923       .  S
Al535       O544   1.791       .  S
C536        O549   1.248       .  A
C536       C1629   1.468       .  S
O537        C547   1.255       .  A
O537       Al539   1.905       .  S
O538        C551   1.266       .  A
O538       Al548   1.919       .  S
Al539      O1459   1.881       .  S
Al539       O549   1.891       .  S
Al539       O544   1.795       .  S
O540       Al548   1.918       .  S
O541       Al548   1.924       .  S
O543       C1478   1.252       .  A
O543      Al1463   1.892       .  S
O545        C546   1.272       .  A
O545      Al1463   1.949   1_455  S
C546        C713   1.482       .  S
C550       O1471   1.244       .  A
C550        C857   1.487       .  S
C551        O552   1.266       .  A
C551        C689   1.466       .  S
O553        C568   1.265       .  A
O553       Al561   1.881       .  S
C554        O564   1.275       .  A
C554        O555   1.280       .  A
C554        C677   1.499       .  S
O555       Al557   1.936       .  S
O556        C558   1.247       .  A
O556       Al557   1.872       .  S
Al557       O565   1.885       .  S
Al557       O567   1.928       .  S
Al557       O566   1.791       .  S
C558        O571   1.248       .  A
C558        C824   1.477       .  S
O559        C569   1.253       .  A
O559       Al561   1.901       .  S
O560        C573   1.266       .  A
O560      Al1498   1.921   1_455  S
Al561      O1502   1.894       .  S
Al561       O571   1.898       .  S
Al561       O566   1.796       .  S
O562       C1497   1.263   1_455  A
O562      Al1498   1.899   1_455  S
O563       C1500   1.255       .  A
O563      Al1498   1.910       .  S
O564       Al570   1.912       .  S
O565        C572   1.245       .  A
O566       Al570   1.795       .  S
O567        C568   1.273       .  A
C568        C905   1.476       .  S
C569       O1490   1.254       .  A
C569       C1848   1.474       .  S
Al570      O1488   1.915       .  S
Al570      O1490   1.879       .  S
Al570      O1491   1.882       .  S
C572       O1491   1.244       .  A
C572        C665   1.492       .  S
C573        O574   1.266       .  A
C573        C809   1.468       .  S
O574      Al1489   1.911   1_455  S
O575        C590   1.258       .  A
C576        O586   1.272       .  A
C576        O577   1.273       .  A
C576        C680   1.499       .  S
O578        C580   1.258   1_545  A
Al579       O587   1.895       .  S
Al579       O589   1.924       .  S
C580        O593   1.260       .  A
O581        C591   1.253       .  A
O581       Al583   1.895       .  S
O582        C595   1.262       .  A
O582       Al592   1.915       .  S
Al583       O596   1.872       .  S
Al583       O593   1.916       .  S
Al583       O588   1.787       .  S
O584        C591   1.257       .  A
O584       Al592   1.889       .  S
O585        C594   1.253       .  A
O585       Al592   1.901       .  S
O586       Al592   1.924       .  S
O588       Al592   1.785       .  S
O589        C590   1.268       .  A
C590        C836   1.467       .  S
C591        C845   1.479       .  S
C594        C653   1.496       .  S
C595        O596   1.257       .  A
C595        C884   1.460       .  S
O597        C612   1.261       .  A
O597      Al1533   1.887       .  S
C598        O608   1.274       .  A
C598        O599   1.269       .  A
C598        C641   1.499       .  S
O599       Al601   1.902       .  S
O600        C602   1.259   1_655  A
O600       Al601   1.893   1_655  S
Al601      O1537   1.899       .  S
Al601      O1539   1.923   1_455  S
Al601       O610   1.783       .  S
C602        O615   1.265       .  A
C602       C1620   1.489   1_455  S
O603        C613   1.254       .  A
O603       Al605   1.898       .  S
O604        C617   1.266       .  A
O604       Al614   1.932       .  S
Al605      O1525   1.884   1_455  S
Al605       O618   1.870       .  S
Al605       O615   1.931       .  S
Al605       O610   1.794       .  S
O606        C613   1.255       .  A
O606       Al614   1.880       .  S
O607        C616   1.254       .  A
O607       Al614   1.906       .  S
O608       Al614   1.941       .  S
O609       C1544   1.253       .  A
O609      Al1529   1.894       .  S
O610       Al614   1.785       .  S
O611        C612   1.267       .  A
O611      Al1529   1.922       .  S
C612        C776   1.466       .  S
C613        C785   1.466       .  S
C616       O1537   1.254       .  A
C616        C668   1.492       .  S
C617        O618   1.256       .  A
C617        C704   1.467       .  S
O619        C634   1.259       .  A
O619       Al627   1.864       .  S
C620        O630   1.269       .  A
C620        O621   1.274       .  A
C620        C644   1.499       .  S
O621       Al623   1.938       .  S
O622        C624   1.252       .  A
O622       Al623   1.881       .  S
Al623       O631   1.896       .  S
Al623       O633   1.945       .  S
Al623       O632   1.775       .  S
C624        O637   1.252       .  A
C624        C764   1.476       .  S
O625        C635   1.266       .  A
O625       Al627   1.908       .  S
O626        C639   1.270       .  A
Al627       O637   1.909       .  S
Al627       O632   1.789       .  S
O628        C635   1.269       .  A
O628       Al636   1.930       .  S
O629        C638   1.258       .  A
O629       Al636   1.925       .  S
O630       Al636   1.901       .  S
O631        C638   1.252       .  A
O632       Al636   1.784       .  S
O633        C634   1.274       .  A
C634        C725   1.471       .  S
C635        C716   1.466       .  S
C638        C656   1.504       .  S
C639        O640   1.259       .  A
C639        C752   1.478       .  S
C641        C642   1.409       .  A
C641        C646   1.414       .  A
C642        C643   1.406       .  A
C642        H647   1.083       .  S
C643        C644   1.414       .  A
C643        O648   1.371       .  S
C644        C645   1.408       .  A
C645        C646   1.404       .  A
C645        H649   1.083       .  S
C646        O650   1.372       .  S
O648        H652   0.992       .  S
O650        H651   0.992       .  S
C653        C658   1.414       .  A
C654        C655   1.407   1_556  A
C654        H659   1.083       .  S
C655        C656   1.417       .  A
C655        O660   1.372       .  S
C657        C658   1.406   1_554  A
C657        H661   1.083       .  S
C658        O662   1.371       .  S
O660        H664   0.992       .  S
O662        H663   0.992       .  S
C665       C1594   1.410       .  A
C665        C670   1.412       .  A
C666       C1593   1.408   1_455  A
C666        C667   1.405   1_556  A
C666        H671   1.083       .  S
C667        C668   1.412       .  A
C667        O672   1.371       .  S
C668       C1597   1.407   1_455  A
C669       C1596   1.405       .  A
C669        C670   1.400   1_554  A
C669        H673   1.084       .  S
C670        O674   1.372       .  S
O672        H676   0.992       .  S
O674        H675   0.992       .  S
C677        C678   1.411       .  A
C677        C682   1.411       .  A
C678        C679   1.406       .  A
C678        H683   1.083       .  S
C679        C680   1.412       .  A
C679        O684   1.372       .  S
C680        C681   1.411       .  A
C681        C682   1.405       .  A
C681        H685   1.083       .  S
C682        O686   1.371       .  S
O684        H688   0.992       .  S
O686        H687   0.992       .  S
C689        C690   1.394       .  A
C689       C1622   1.407       .  A
C690        C691   1.389       .  A
C690        H695   1.081       .  S
C691        C692   1.415       .  A
C691        O696   1.373       .  S
C692       C1530   1.483       .  S
C692       C1621   1.407       .  A
C693       C1620   1.408   1_455  A
C693        C694   1.412   1_455  A
C693        H697   1.083       .  S
C694       C1617   1.410       .  A
C694        O698   1.371   1_655  S
O696        H700   0.992       .  S
O698        H699   0.992   1_455  S
C701       C1464   1.468   1_455  S
C701        C702   1.399   1_455  A
C701       C1634   1.409       .  A
C702        C703   1.401       .  A
C702        H707   1.084       .  S
C703        C704   1.411   1_655  A
C703        O708   1.371       .  S
C704       C1633   1.399       .  A
C705       C1632   1.398       .  A
C705        C706   1.399       .  A
C705        H709   1.084       .  S
C706       C1629   1.411       .  A
C706        O710   1.372       .  S
O708        H712   0.992       .  S
O710        H711   0.992       .  S
C713        C714   1.403       .  A
C714        C715   1.403       .  A
C714        H719   1.083       .  S
C715        O720   1.371       .  S
C716        C717   1.396       .  A
C717        C718   1.400       .  A
C717        H721   1.084       .  S
C718        O722   1.371       .  S
O720        H724   0.991       .  S
O722        H723   0.992       .  S
C725        C726   1.409       .  A
C725        C730   1.403       .  A
C726        H731   1.083       .  S
C727        O732   1.371       .  S
C728        C729   1.403       .  A
C729        C730   1.397       .  A
C729        H733   1.080       .  S
C730        O734   1.372       .  S
O732        H736   0.992       .  S
O734        H735   0.992       .  S
C737        C738   1.410       .  A
C737        C742   1.412       .  A
C738        C739   1.407       .  A
C738        H743   1.083       .  S
C739        C740   1.414       .  A
C739        O744   1.372       .  S
C740        C741   1.412       .  A
C741        C742   1.409       .  A
C741        H745   1.083       .  S
C742        O746   1.371       .  S
O744        H748   0.992       .  S
O746        H747   0.992       .  S
C749        C750   1.395       .  A
C749        C754   1.413       .  A
C750        C751   1.387       .  A
C750        H755   1.085       .  S
C751        C752   1.414       .  A
C751        O756   1.371       .  S
C752        C753   1.404       .  A
C753        C754   1.409       .  A
C753        H757   1.083       .  S
C754        O758   1.371       .  S
O756        H760   0.992       .  S
O758        H759   0.991       .  S
C761        C762   1.401       .  A
C761        C766   1.410       .  A
C762        C763   1.390       .  A
C762        H767   1.085       .  S
C763        C764   1.407       .  A
C763        O768   1.373       .  S
C764        C765   1.407       .  A
C765        C766   1.410       .  A
C765        H769   1.083       .  S
C766        O770   1.371       .  S
O768        H772   0.992       .  S
O770        H771   0.992       .  S
C773        C774   1.405       .  A
C773        C778   1.398       .  A
C774        C775   1.403       .  A
C774        H779   1.084       .  S
C775        C776   1.405       .  A
C775        O780   1.371       .  S
C776        C777   1.406       .  A
C777        C778   1.386       .  A
C777        H781   1.084       .  S
C778        O782   1.373       .  S
O780        H784   0.992       .  S
O782        H783   0.992       .  S
C785        C786   1.394       .  A
C785        C790   1.410       .  A
C786        C787   1.391       .  A
C786        H791   1.084       .  S
C787        C788   1.420       .  A
C787        O792   1.372       .  S
C788        C789   1.404       .  A
C789        C790   1.404       .  A
C789        H793   1.083       .  S
C790        O794   1.371       .  S
O792        H796   0.991       .  S
O794        H795   0.991       .  S
C797        C798   1.408       .  A
C797        C802   1.411       .  A
C798        C799   1.401       .  A
C798        H803   1.083       .  S
C799        C800   1.412       .  A
C799        O804   1.372       .  S
C800        C801   1.409       .  A
C801        C802   1.402       .  A
C801        H805   1.083       .  S
C802        O806   1.371       .  S
O804        H808   0.992       .  S
O806        H807   0.992       .  S
C809        C810   1.405       .  A
C809        C814   1.401       .  A
C810        C811   1.410       .  A
C810        H815   1.083       .  S
C811        C812   1.412       .  A
C811        O816   1.371       .  S
C812        C813   1.404       .  A
C813        C814   1.387       .  A
C813        H817   1.084       .  S
C814        O818   1.371       .  S
O816        H820   0.992       .  S
O818        H819   0.992       .  S
C821        C822   1.396       .  A
C821        C826   1.409       .  A
C822        C823   1.394       .  A
C822        H827   1.084       .  S
C823        C824   1.411       .  A
C823        O828   1.373       .  S
C824        C825   1.405       .  A
C825        C826   1.406       .  A
C825        H829   1.083       .  S
C826        O830   1.372       .  S
O828        H832   0.992       .  S
O830        H831   0.992       .  S
C833        C834   1.402       .  A
C833        C838   1.412       .  A
C834        C835   1.381       .  A
C834        H839   1.084       .  S
C835        C836   1.408       .  A
C835        O840   1.375       .  S
C836        C837   1.404       .  A
C837        C838   1.407       .  A
C837        H841   1.083       .  S
C838        O842   1.371       .  S
O840        H844   0.992       .  S
O842        H843   0.992       .  S
C845        C846   1.397       .  A
C845        C850   1.415       .  A
C846        C847   1.392       .  A
C846        H851   1.084       .  S
C847        C848   1.416       .  A
C847        O852   1.372       .  S
C848        C849   1.403       .  A
C849        C850   1.408       .  A
C849        H853   1.083       .  S
C850        O854   1.372       .  S
O852        H856   0.991       .  S
O854        H855   0.991       .  S
C857       C1322   1.404       .  A
C857        C862   1.413   1_565  A
C858       C1321   1.407   1_455  A
C858        C859   1.403       .  A
C858        H863   1.083       .  S
C859        C860   1.413       .  A
C859        O864   1.372       .  S
C860       C1325   1.406   1_455  A
C861       C1324   1.405       .  A
C861        C862   1.402       .  A
C861        H865   1.083       .  S
C862        O866   1.371       .  S
O864        H868   0.992       .  S
O866        H867   0.992       .  S
C869        C870   1.410       .  A
C869        C874   1.417       .  A
C870        C871   1.407       .  A
C870        H875   1.083       .  S
C871        C872   1.412       .  A
C871        O876   1.372       .  S
C872        C873   1.406       .  A
C873        C874   1.408       .  A
C873        H877   1.084       .  S
C874        O878   1.371       .  S
O876        H880   0.992       .  S
O878        H879   0.992       .  S
C881        C882   1.406       .  A
C882        C883   1.407       .  A
C882        H887   1.083       .  S
C883        O888   1.371       .  S
C884        C885   1.390       .  A
C885        C886   1.388       .  A
C885        H889   1.084       .  S
C886        O890   1.373       .  S
O888        H892   0.992       .  S
O890        H891   0.992       .  S
C893        C894   1.397       .  A
C893        C898   1.411       .  A
C894        C895   1.397       .  A
C894        H899   1.083       .  S
C895        C896   1.413       .  A
C895        O900   1.372       .  S
C896        C897   1.401       .  A
C897        C898   1.404       .  A
C898        O902   1.371       .  S
O900        H904   0.991       .  S
O902        H903   0.992       .  S
C905        C906   1.404       .  A
C905        C910   1.412       .  A
C906        C907   1.408       .  A
C906        H911   1.083       .  S
C907       C1836   1.412       .  A
C907        O912   1.372       .  S
C908       C1835   1.410   1_455  A
C908        C909   1.395       .  A
C909       C1838   1.392       .  A
C909        H913   1.084       .  S
C910       C1837   1.391       .  A
C910       O1842   1.372       .  S
O912        H916   0.991       .  S
O914       C1838   1.371       .  S
O914        H915   0.991       .  S
C917        C918   1.406   1_455  A
C917        C922   1.402       .  A
C918        C919   1.411       .  A
C918        H923   1.082       .  S
C919        C920   1.411   1_655  A
C919        O924   1.371       .  S
C920       C1497   1.477   1_455  S
C920        C921   1.401       .  A
C921        C922   1.384       .  A
C921       H1853   1.082       .  S
C922        O926   1.372       .  S
O924        H928   0.992       .  S
H925       C1849   1.084       .  S
O926        H927   0.992       .  S
O929        C944   1.259       .  A
O929      Al1401   1.884       .  S
C930        O940   1.274       .  A
C930        O931   1.266       .  A
C930       C1336   1.499       .  S
O931       Al933   1.901       .  S
O932        C934   1.255   1_565  A
O932       Al933   1.873   1_565  S
Al933      O1405   1.887       .  S
Al933      O1407   1.931   1_545  S
Al933       O942   1.784       .  S
C934        O947   1.268       .  A
C934       C1345   1.484   1_545  S
O935        C945   1.255       .  A
O935       Al937   1.907       .  S
O936        C949   1.267       .  A
Al937      O1393   1.880   1_545  S
Al937       O947   1.937       .  S
Al937       O942   1.792       .  S
O940       Al946   1.942       .  S
O941       C1412   1.260       .  A
O941      Al1397   1.917       .  S
O942       Al946   1.783       .  S
O943        C944   1.263       .  A
O943      Al1397   1.921       .  S
C944       C1381   1.461       .  S
C945       C1372   1.470       .  S
C948       O1405   1.252       .  A
C948       C1324   1.485       .  S
C949        O950   1.255       .  A
C949       C1357   1.468       .  S
O951        C966   1.263       .  A
O951       Al959   1.890       .  S
C952        O962   1.278       .  A
C952        O953   1.267       .  A
C952       C1333   1.496       .  S
O953       Al955   1.888       .  S
O954        C956   1.260       .  A
O954       Al955   1.897       .  S
Al955       O963   1.898       .  S
Al955       O965   1.924       .  S
Al955       O964   1.789       .  S
C956        O969   1.258       .  A
C956       C1276   1.472       .  S
O957        C967   1.251       .  A
O957       Al959   1.895       .  S
O958        C971   1.272       .  A
O958       Al968   1.948       .  S
Al959       O972   1.853       .  S
Al959       O969   1.907       .  S
Al959       O964   1.793       .  S
O960        C967   1.253       .  A
O960       Al968   1.877       .  S
O961        C970   1.253       .  A
O961       Al968   1.904       .  S
O962       Al968   1.955       .  S
O963        C970   1.252       .  A
O964       Al968   1.782       .  S
O965        C966   1.269       .  A
C966       C1312   1.461       .  S
C967       C1297   1.471       .  S
C970       C1261   1.493       .  S
C971        O972   1.255       .  A
C971       C1285   1.486       .  S
O973        C988   1.257       .  A
O973       Al981   1.862       .  S
C974        O984   1.266       .  A
C974        O975   1.269       .  A
C974       C1201   1.500       .  S
O975       Al977   1.935       .  S
O976        C978   1.256       .  A
O976       Al977   1.876       .  S
Al977       O985   1.891       .  S
Al977       O987   1.943       .  S
Al977       O986   1.772       .  S
C978        O991   1.255       .  A
C978       C1213   1.470       .  S
O979        C989   1.260       .  A
O979       Al981   1.884       .  S
O980        C993   1.267       .  A
O980       Al990   1.937       .  S
Al981       O994   1.883       .  S
Al981       O991   1.907       .  S
Al981       O986   1.785       .  S
O982        C989   1.268       .  A
O982       Al990   1.922       .  S
O983        C992   1.261       .  A
O983       Al990   1.922       .  S
O984       Al990   1.909       .  S
O985        C992   1.258       .  A
O986       Al990   1.777       .  S
O987        C988   1.270       .  A
C988       C1252   1.466       .  S
C989       C1237   1.455       .  S
C992       C1264   1.493       .  S
C993        O994   1.258       .  A
C993       C1225   1.472       .  S
O995       C1010   1.257       .  A
C996       O1006   1.268       .  A
C996        O997   1.274       .  A
C996       C1204   1.501       .  S
O997       Al999   1.946       .  S
O998       C1000   1.254       .  A
O998       Al999   1.873       .  S
Al999      O1008   1.774       .  S
C1000      O1013   1.263       .  A
O1001      C1011   1.265       .  A
O1001     Al1003   1.921       .  S
O1002      C1015   1.267       .  A
O1002     Al1012   1.923   1_545  S
Al1003     O1480   1.920       .  S
Al1003     O1013   1.947       .  S
Al1003     O1008   1.785       .  S
O1004      C1475   1.260   1_545  A
O1004     Al1012   1.908   1_545  S
O1005      C1478   1.251       .  A
O1005     Al1012   1.901       .  S
O1006     Al1476   1.907       .  S
O1008     Al1476   1.783       .  S
O1009      C1010   1.272       .  A
C1010      C1177   1.480       .  S
C1011      O1468   1.263       .  A
C1011      C1656   1.473       .  S
Al1012     O1470   1.898       .  S
Al1012     O1472   1.792       .  S
C1014      O1469   1.258       .  A
C1014      C1321   1.493       .  S
C1015      O1016   1.265       .  A
C1015      C1153   1.468       .  S
O1016     Al1467   1.912   1_545  S
O1017      C1032   1.253       .  A
O1017     Al1025   1.851       .  S
C1018      O1028   1.273       .  A
C1018      O1019   1.283       .  A
C1018      C1141   1.502       .  S
O1019     Al1021   1.966       .  S
O1020      C1022   1.254       .  A
O1020     Al1021   1.883       .  S
Al1021     O1029   1.911       .  S
Al1021     O1031   1.947       .  S
Al1021     O1030   1.785       .  S
C1022      O1035   1.254       .  A
C1022      C1288   1.466       .  S
O1023      C1033   1.256       .  A
O1023     Al1025   1.915       .  S
O1024      C1037   1.270       .  A
Al1025     O1035   1.894       .  S
Al1025     O1030   1.793       .  S
O1028     Al1034   1.894       .  S
O1029      C1036   1.251       .  A
O1030     Al1034   1.787       .  S
O1031      C1032   1.269       .  A
C1032      C1369   1.491       .  S
C1036      C1129   1.495       .  S
C1037      O1038   1.269       .  A
C1037      C1273   1.461       .  S
O1039      C1054   1.260       .  A
O1039     Al1511   1.888   1_545  S
C1040      O1050   1.283       .  A
C1040      O1041   1.286       .  A
C1040      C1144   1.503       .  S
O1041     Al1507   1.944       .  S
O1042      C1044   1.253       .  A
O1042     Al1507   1.894       .  S
Al1043     O1505   1.913       .  S
Al1043     O1506   1.914   1_565  S
Al1043     O1051   1.907       .  S
Al1043     O1053   1.940   1_565  S
Al1043     O1516   1.786       .  S
C1044      O1057   1.252       .  A
C1044      C1824   1.471       .  S
O1045      C1055   1.245       .  A
O1045     Al1047   1.884       .  S
O1046      C1059   1.276       .  A
O1046     Al1056   1.921       .  S
Al1047     O1503   1.855       .  S
Al1047     O1060   1.914       .  S
Al1047     O1057   1.901       .  S
Al1047     O1052   1.780       .  S
O1048      C1055   1.249       .  A
O1048     Al1056   1.891       .  S
O1049      C1058   1.245       .  A
O1049     Al1056   1.889       .  S
O1050     Al1056   1.927       .  S
O1051      C1522   1.255       .  A
O1052     Al1507   1.782       .  S
O1052     Al1056   1.784       .  S
O1053      C1054   1.271       .  A
C1054      C1300   1.478       .  S
C1055      C1309   1.477       .  S
C1058      O1515   1.246       .  A
C1058      C1117   1.496       .  S
C1059      O1060   1.274       .  A
C1059      C1348   1.480       .  S
O1061      C1076   1.270       .  A
C1062      O1072   1.285       .  A
C1062      O1063   1.277       .  A
C1062      C1105   1.504       .  S
O1063     Al1065   1.911       .  S
O1064      C1066   1.244       .  A
O1064     Al1065   1.857       .  S
Al1065     O1074   1.785       .  S
C1066      O1079   1.249       .  A
O1067      C1077   1.251       .  A
O1067     Al1069   1.892       .  S
O1068      C1081   1.273       .  A
O1068     Al1078   1.946       .  S
Al1069     O1082   1.884       .  S
Al1069     O1079   1.904       .  S
Al1069     O1074   1.789       .  S
O1070      C1077   1.253       .  A
O1070     Al1078   1.892       .  S
O1071      C1080   1.247       .  A
O1071     Al1078   1.904       .  S
O1072     Al1078   1.953       .  S
O1074     Al1078   1.792       .  S
O1075      C1076   1.272       .  A
C1076      C1240   1.462       .  S
C1077      C1249   1.462       .  S
C1080      C1132   1.490       .  S
C1081      O1082   1.264       .  A
C1081      C1168   1.490       .  S
O1083      C1098   1.259       .  A
O1083     Al1091   1.867       .  S
C1084      O1094   1.270       .  A
C1084      O1085   1.269       .  A
C1084      C1108   1.503       .  S
O1085     Al1087   1.926       .  S
O1086      C1088   1.254       .  A
O1086     Al1087   1.886       .  S
Al1087     O1095   1.895       .  S
Al1087     O1097   1.930       .  S
Al1087     O1096   1.780       .  S
C1088      O1101   1.252       .  A
C1088      C1228   1.473       .  S
O1089      C1099   1.264       .  A
O1089     Al1091   1.901       .  S
O1090      C1103   1.268       .  A
O1090     Al1564   1.929       .  S
Al1091     O1568   1.891   1_545  S
Al1091     O1101   1.903       .  S
Al1091     O1096   1.789       .  S
O1092      C1099   1.266       .  A
O1092     Al1100   1.919       .  S
O1093      C1102   1.258       .  A
O1093     Al1100   1.921       .  S
O1094     Al1100   1.918       .  S
O1095      C1102   1.254       .  A
O1096     Al1100   1.784       .  S
O1097      C1098   1.269       .  A
C1098      C1189   1.463       .  S
C1099      C1180   1.461       .  S
Al1100     O1554   1.949   1_545  S
C1102      C1120   1.500       .  S
C1103      O1104   1.259       .  A
C1103      C1216   1.471       .  S
O1104     Al1555   1.893       .  S
C1105      C1106   1.407       .  A
C1105      C1110   1.419       .  A
C1106      C1107   1.409       .  A
C1106      H1111   1.083       .  S
C1107      C1108   1.418       .  A
C1107      O1112   1.371       .  S
C1108      C1109   1.406       .  A
C1109      C1110   1.405       .  A
C1109      H1113   1.083       .  S
C1110      O1114   1.372       .  S
O1112      H1116   0.992       .  S
O1114      H1115   0.992       .  S
C1117      C1582   1.407       .  A
C1117      C1122   1.414       .  A
C1118      C1581   1.407   1_545  A
C1118      C1119   1.403   1_556  A
C1118      H1123   1.083       .  S
C1119      C1120   1.414       .  A
C1119      O1124   1.372       .  S
C1120      C1585   1.409   1_545  A
C1121      C1584   1.406       .  A
C1121      C1122   1.404   1_554  A
C1121      H1125   1.083       .  S
C1122      O1126   1.371       .  S
O1124      H1128   0.992       .  S
O1126      H1127   0.992       .  S
C1129      C1134   1.411       .  A
C1130      C1131   1.403   1_556  A
C1130      H1135   1.083       .  S
C1131      C1132   1.410       .  A
C1131      O1136   1.371       .  S
C1133      C1134   1.404   1_554  A
C1133      H1137   1.083       .  S
C1134      O1138   1.371       .  S
O1136      H1140   0.992       .  S
O1138      H1139   0.992       .  S
C1141      C1142   1.408       .  A
C1141      C1146   1.414       .  A
C1142      C1143   1.403       .  A
C1142      H1147   1.083       .  S
C1143      C1144   1.415       .  A
C1143      O1148   1.372       .  S
C1144      C1145   1.411       .  A
C1145      C1146   1.410       .  A
C1145      H1149   1.083       .  S
C1146      O1150   1.371       .  S
O1148      H1152   0.992       .  S
O1150      H1151   0.992       .  S
C1153      C1154   1.396       .  A
C1154      C1155   1.391       .  A
C1154      H1159   1.080       .  S
C1155      C1156   1.412       .  A
C1155      O1160   1.373       .  S
C1157      C1158   1.407       .  A
C1157      H1161   1.083       .  S
C1158      O1162   1.371       .  S
O1160      H1164   0.992       .  S
O1162      H1163   0.991       .  S
C1165      C1166   1.412       .  A
C1166      C1167   1.416       .  A
C1166      H1171   1.083       .  S
C1167      C1168   1.412       .  A
C1167      O1172   1.371       .  S
C1169      C1170   1.390       .  A
C1169      H1173   1.085       .  S
C1170      O1174   1.372       .  S
O1172      H1176   0.992       .  S
O1174      H1175   0.992       .  S
C1177      C1178   1.402       .  A
C1177      C1646   1.416       .  A
C1178      C1179   1.402       .  A
C1178      H1183   1.084       .  S
C1179      C1644   1.410       .  A
C1179      O1184   1.372       .  S
C1180      C1643   1.409   1_545  A
C1180      C1181   1.395       .  A
C1181      C1182   1.397       .  A
C1181      H1185   1.084       .  S
C1182      C1641   1.414   1_545  A
C1182      O1186   1.372       .  S
O1184      H1188   0.992       .  S
O1186      H1187   0.992       .  S
C1189      C1190   1.407   1_545  A
C1189      C1194   1.403       .  A
C1190      C1655   1.399       .  A
C1190      H1195   1.084       .  S
C1191      C1654   1.403       .  A
C1191      C1656   1.403       .  A
C1191      O1196   1.371       .  S
C1192      C1475   1.461       .  S
C1192      C1655   1.401       .  A
C1192      C1193   1.402   1_565  A
C1193      C1194   1.394       .  A
C1193      H1197   1.080       .  S
C1194      O1198   1.372       .  S
O1196      H1200   0.992       .  S
O1198      H1199   0.992       .  S
C1201      C1202   1.407       .  A
C1201      C1206   1.415       .  A
C1202      C1203   1.407       .  A
C1202      H1207   1.083       .  S
C1203      C1204   1.415       .  A
C1203      O1208   1.372       .  S
C1204      C1205   1.408       .  A
C1205      C1206   1.407       .  A
C1205      H1209   1.083       .  S
C1206      O1210   1.371       .  S
O1208      H1212   0.992       .  S
O1210      H1211   0.992       .  S
C1213      C1214   1.396       .  A
C1213      C1218   1.413       .  A
C1214      C1215   1.385       .  A
C1214      H1219   1.084       .  S
C1215      C1216   1.413       .  A
C1215      O1220   1.372       .  S
C1216      C1217   1.401       .  A
C1217      C1218   1.405       .  A
C1217      H1221   1.083       .  S
C1218      O1222   1.371       .  S
O1220      H1224   0.992       .  S
O1222      H1223   0.992       .  S
C1225      C1226   1.402       .  A
C1225      C1230   1.409       .  A
C1226      C1227   1.389       .  A
C1226      H1231   1.085       .  S
C1227      C1228   1.405       .  A
C1227      O1232   1.373       .  S
C1228      C1229   1.408       .  A
C1229      C1230   1.410       .  A
C1229      H1233   1.083       .  S
C1230      O1234   1.371       .  S
O1232      H1236   0.992       .  S
O1234      H1235   0.991       .  S
C1237      C1238   1.405       .  A
C1237      C1242   1.398       .  A
C1238      C1239   1.401       .  A
C1238      H1243   1.084       .  S
C1239      C1240   1.404       .  A
C1239      O1244   1.372       .  S
C1240      C1241   1.406       .  A
C1241      C1242   1.391       .  A
C1241      H1245   1.084       .  S
C1242      O1246   1.372       .  S
O1244      H1248   0.992       .  S
O1246      H1247   0.992       .  S
C1249      C1250   1.397       .  A
C1249      C1254   1.409       .  A
C1250      C1251   1.398       .  A
C1250      H1255   1.084       .  S
C1251      C1252   1.413       .  A
C1251      O1256   1.372       .  S
C1252      C1253   1.399       .  A
C1253      C1254   1.396       .  A
C1253      H1257   1.084       .  S
C1254      O1258   1.372       .  S
O1256      H1260   0.992       .  S
O1258      H1259   0.991       .  S
C1261      C1262   1.407       .  A
C1261      C1266   1.414       .  A
C1262      C1263   1.405       .  A
C1262      H1267   1.083       .  S
C1263      C1264   1.414       .  A
C1263      O1268   1.371       .  S
C1264      C1265   1.406       .  A
C1265      C1266   1.400       .  A
C1265      H1269   1.083       .  S
C1266      O1270   1.372       .  S
O1268      H1272   0.992       .  S
O1270      H1271   0.992       .  S
C1273      C1274   1.405       .  A
C1273      C1278   1.401       .  A
C1274      C1275   1.407       .  A
C1274      H1279   1.084       .  S
C1275      C1276   1.408       .  A
C1275      O1280   1.371       .  S
C1276      C1277   1.403       .  A
C1277      C1278   1.386       .  A
C1277      H1281   1.084       .  S
C1278      O1282   1.371       .  S
O1280      H1284   0.992       .  S
O1282      H1283   0.992       .  S
C1285      C1286   1.405       .  A
C1285      C1290   1.419       .  A
C1286      C1287   1.405       .  A
C1286      H1291   1.083       .  S
C1287      C1288   1.408       .  A
C1287      O1292   1.372       .  S
C1288      C1289   1.394       .  A
C1289      C1290   1.396       .  A
C1289      H1293   1.084       .  S
C1290      O1294   1.372       .  S
O1292      H1296   0.992       .  S
O1294      H1295   0.991       .  S
C1297      C1298   1.395       .  A
C1297      C1302   1.413       .  A
C1298      C1299   1.390       .  A
C1298      H1303   1.085       .  S
C1299      C1300   1.415       .  A
C1299      O1304   1.372       .  S
C1300      C1301   1.403       .  A
C1301      C1302   1.408       .  A
C1301      H1305   1.083       .  S
C1302      O1306   1.371       .  S
O1304      H1308   0.991       .  S
O1306      H1307   0.992       .  S
C1309      C1310   1.408       .  A
C1309      C1314   1.411       .  A
C1310      C1311   1.404       .  A
C1310      H1315   1.083       .  S
C1311      C1312   1.404       .  A
C1311      O1316   1.371       .  S
C1312      C1313   1.400       .  A
C1313      C1314   1.390       .  A
C1313      H1317   1.084       .  S
C1314      O1318   1.373       .  S
O1316      H1320   0.992       .  S
O1318      H1319   0.992       .  S
C1321      C1326   1.413       .  A
C1322      C1323   1.397       .  A
C1322      H1327   1.084       .  S
C1323      C1324   1.413   1_565  A
C1323      O1328   1.372       .  S
C1325      C1326   1.404       .  A
C1325      H1329   1.083       .  S
C1326      O1330   1.371       .  S
O1328      H1332   0.992       .  S
O1330      H1331   0.992       .  S
C1333      C1334   1.406       .  A
C1333      C1338   1.415       .  A
C1334      C1335   1.407       .  A
C1334      H1339   1.083       .  S
C1335      C1336   1.417       .  A
C1335      O1340   1.371       .  S
C1336      C1337   1.406       .  A
C1337      C1338   1.403       .  A
C1337      H1341   1.083       .  S
C1338      O1342   1.372       .  S
O1340      H1344   0.992       .  S
O1342      H1343   0.992       .  S
C1345      C1346   1.405   1_565  A
C1345      C1814   1.421       .  A
C1346      C1347   1.407       .  A
C1346      H1351   1.083       .  S
C1347      C1812   1.410   1_545  A
C1347      O1352   1.372       .  S
C1348      C1811   1.409       .  A
C1348      C1349   1.406       .  A
C1349      C1350   1.394       .  A
C1349      H1353   1.082       .  S
C1350      C1809   1.402       .  A
C1350      O1354   1.372       .  S
O1352      H1356   0.992       .  S
O1354      H1355   0.992       .  S
C1357      C1358   1.398       .  A
C1357      C1362   1.410   1_545  A
C1358      C1359   1.399       .  A
C1358      H1363   1.084       .  S
C1359      C1360   1.413       .  A
C1359      O1364   1.372       .  S
C1360      C1508   1.472   1_545  S
C1360      C1361   1.399   1_545  A
C1361      C1362   1.400       .  A
C1361      H1829   1.084       .  S
C1362      O1366   1.371       .  S
O1364      H1368   0.992       .  S
H1365      C1825   1.084       .  S
O1366      H1367   0.992       .  S
C1369      C1370   1.406       .  A
C1369      C1374   1.420   1_655  A
C1370      C1371   1.409       .  A
C1370      H1375   1.083       .  S
C1371      O1376   1.372       .  S
C1372      C1373   1.394       .  A
C1373      H1377   1.085       .  S
O1376      H1380   0.992       .  S
O1378      H1379   0.990       .  S
C1381      C1382   1.405       .  A
C1381      C1386   1.402       .  A
C1382      C1383   1.408       .  A
C1382      H1387   1.083       .  S
C1383      C1384   1.409       .  A
C1383      O1388   1.371       .  S
C1384      C1385   1.404       .  A
C1385      C1386   1.385       .  A
C1386      O1390   1.374       .  S
O1388      H1392   0.992       .  S
O1390      H1391   0.992       .  S
O1393      C1408   1.260       .  A
C1394      O1404   1.273       .  A
C1394      O1395   1.262       .  A
C1394      C1800   1.497       .  S
O1395     Al1397   1.891       .  S
O1396      C1398   1.266       .  A
O1396     Al1397   1.919       .  S
Al1397     O1406   1.781       .  S
C1398      O1411   1.264       .  A
C1398      C1809   1.469       .  S
O1399      C1409   1.257       .  A
O1399     Al1401   1.922       .  S
O1400      C1413   1.272       .  A
Al1401     O1411   1.906       .  S
Al1401     O1406   1.788       .  S
O1404     Al1410   1.948       .  S
O1406     Al1410   1.777       .  S
O1407      C1408   1.269       .  A
C1408      C1845   1.463       .  S
C1409      C1836   1.473       .  S
C1412      C1788   1.494       .  S
C1413      O1414   1.258       .  A
C1413      C1821   1.473       .  S
O1415      C1430   1.271       .  A
O1415     Al1423   1.902       .  S
C1416      O1426   1.284       .  A
C1416      O1417   1.277       .  A
C1416      C1797   1.503       .  S
O1417     Al1419   1.912       .  S
O1418      C1420   1.251       .  A
O1418     Al1419   1.879       .  S
Al1419     O1427   1.901       .  S
Al1419     O1429   1.929       .  S
Al1419     O1428   1.782       .  S
C1420      O1433   1.254       .  A
C1420      C1740   1.484       .  S
O1421      C1431   1.252       .  A
O1421     Al1423   1.897       .  S
O1422      C1435   1.266       .  A
O1422     Al1432   1.927       .  S
Al1423     O1436   1.869       .  S
Al1423     O1433   1.916       .  S
Al1423     O1428   1.792       .  S
O1424      C1431   1.251       .  A
O1424     Al1432   1.856       .  S
O1425      C1434   1.246       .  A
O1425     Al1432   1.891       .  S
O1426     Al1432   1.955       .  S
O1427      C1434   1.247       .  A
O1428     Al1432   1.776       .  S
O1429      C1430   1.278       .  A
C1430      C1776   1.479       .  S
C1431      C1761   1.474       .  S
C1434      C1725   1.493       .  S
C1435      O1436   1.258       .  A
C1435      C1749   1.469       .  S
O1437      C1452   1.255       .  A
O1437     Al1445   1.841       .  S
C1438      O1448   1.264       .  A
C1438      O1439   1.277       .  A
C1438      C1665   1.504       .  S
O1439     Al1441   1.961       .  S
O1440      C1442   1.253       .  A
O1440     Al1441   1.878       .  S
Al1441     O1449   1.895       .  S
Al1441     O1451   1.968       .  S
Al1441     O1450   1.774       .  S
C1442      O1455   1.253       .  A
C1442      C1677   1.478       .  S
O1443      C1453   1.259       .  A
O1443     Al1445   1.883       .  S
O1444      C1457   1.264       .  A
O1444     Al1454   1.923       .  S
Al1445     O1458   1.900       .  S
Al1445     O1455   1.911       .  S
Al1445     O1450   1.790       .  S
O1446      C1453   1.267       .  A
O1446     Al1454   1.922       .  S
O1447      C1456   1.258       .  A
O1447     Al1454   1.916       .  S
O1448     Al1454   1.889       .  S
O1449      C1456   1.254       .  A
O1450     Al1454   1.783       .  S
O1451      C1452   1.277       .  A
C1452      C1716   1.486       .  S
C1453      C1701   1.454       .  S
C1456      C1728   1.495       .  S
C1457      O1458   1.261       .  A
C1457      C1689   1.472       .  S
O1459      C1474   1.263       .  A
C1460      O1470   1.269       .  A
C1460      O1461   1.280       .  A
C1460      C1668   1.505       .  S
O1461     Al1463   1.965       .  S
O1462      C1464   1.252       .  A
O1462     Al1463   1.881       .  S
Al1463     O1472   1.781       .  S
C1464      O1477   1.254       .  A
O1465      C1475   1.258       .  A
O1465     Al1467   1.902       .  S
O1466      C1479   1.269       .  A
O1466     Al1476   1.927       .  S
Al1467     O1477   1.903       .  S
Al1467     O1472   1.787       .  S
O1468     Al1476   1.913       .  S
O1469     Al1476   1.922       .  S
O1473      C1474   1.270       .  A
C1474      C1641   1.476       .  S
C1478      C1785   1.489       .  S
C1479      O1480   1.268       .  A
C1479      C1617   1.474       .  S
O1481      C1496   1.257       .  A
O1481     Al1489   1.856       .  S
C1482      O1492   1.265       .  A
C1482      O1483   1.275       .  A
C1482      C1605   1.498       .  S
O1483     Al1485   1.951       .  S
O1484      C1486   1.252       .  A
O1484     Al1485   1.874       .  S
Al1485     O1493   1.892       .  S
Al1485     O1495   1.949       .  S
Al1485     O1494   1.779       .  S
C1486      O1499   1.256       .  A
C1486      C1752   1.477       .  S
O1487      C1497   1.262       .  A
O1487     Al1489   1.915       .  S
O1488      C1501   1.264       .  A
Al1489     O1499   1.914       .  S
Al1489     O1494   1.790       .  S
O1492     Al1498   1.886       .  S
O1493      C1500   1.252       .  A
O1494     Al1498   1.787       .  S
O1495      C1496   1.271       .  A
C1496      C1833   1.480       .  S
C1500      C1593   1.492       .  S
C1501      O1502   1.263       .  A
C1501      C1737   1.468       .  S
O1503      C1518   1.256       .  A
C1504      O1514   1.272       .  A
C1504      O1505   1.271       .  A
C1504      C1608   1.499       .  S
O1506      C1508   1.261   1_545  A
Al1507     O1515   1.895       .  S
Al1507     O1517   1.933       .  S
C1508      O1521   1.262       .  A
O1509      C1519   1.251       .  A
O1509     Al1511   1.892       .  S
O1510      C1523   1.266       .  A
O1510     Al1520   1.925       .  S
Al1511     O1524   1.867       .  S
Al1511     O1521   1.910       .  S
Al1511     O1516   1.790       .  S
O1512      C1519   1.256       .  A
O1512     Al1520   1.892       .  S
O1513      C1522   1.254       .  A
O1513     Al1520   1.909       .  S
O1514     Al1520   1.928       .  S
O1516     Al1520   1.786       .  S
O1517      C1518   1.271       .  A
C1518      C1764   1.482       .  S
C1519      C1773   1.479       .  S
C1522      C1581   1.499       .  S
C1523      O1524   1.257       .  A
C1523      C1812   1.459       .  S
O1525      C1540   1.261       .  A
C1526      O1536   1.274       .  A
C1526      O1527   1.267       .  A
C1526      C1569   1.494       .  S
O1527     Al1529   1.892       .  S
O1528      C1530   1.261       .  A
O1528     Al1529   1.896       .  S
Al1529     O1538   1.782       .  S
C1530      O1543   1.265       .  A
O1531      C1541   1.254       .  A
O1531     Al1533   1.901       .  S
O1532      C1545   1.268       .  A
O1532     Al1542   1.938       .  S
Al1533     O1546   1.864       .  S
Al1533     O1543   1.922       .  S
Al1533     O1538   1.790       .  S
O1534      C1541   1.255       .  A
O1534     Al1542   1.884       .  S
O1535      C1544   1.255       .  A
O1535     Al1542   1.909       .  S
O1536     Al1542   1.940       .  S
O1538     Al1542   1.781       .  S
O1539      C1540   1.268       .  A
C1540      C1704   1.466       .  S
C1541      C1713   1.470       .  S
C1544      C1596   1.486       .  S
C1545      O1546   1.256       .  A
C1545      C1632   1.466       .  S
O1547      C1562   1.259       .  A
O1547     Al1555   1.869       .  S
C1548      O1558   1.268       .  A
C1548      O1549   1.273       .  A
C1548      C1572   1.494       .  S
O1549     Al1551   1.938       .  S
O1550      C1552   1.252       .  A
O1550     Al1551   1.879       .  S
Al1551     O1559   1.891       .  S
Al1551     O1561   1.949       .  S
Al1551     O1560   1.776       .  S
C1552      O1565   1.252       .  A
C1552      C1692   1.472       .  S
O1553      C1563   1.267       .  A
O1553     Al1555   1.912       .  S
O1554      C1567   1.269       .  A
Al1555     O1565   1.907       .  S
Al1555     O1560   1.786       .  S
O1556      C1563   1.267       .  A
O1556     Al1564   1.930       .  S
O1557      C1566   1.258       .  A
O1557     Al1564   1.921       .  S
O1558     Al1564   1.893       .  S
O1559      C1566   1.252       .  A
O1560     Al1564   1.783       .  S
O1561      C1562   1.273       .  A
C1562      C1653   1.472       .  S
C1563      C1644   1.469       .  S
C1566      C1584   1.496       .  S
C1567      O1568   1.257       .  A
C1567      C1680   1.483       .  S
C1569      C1570   1.408       .  A
C1569      C1574   1.414       .  A
C1570      C1571   1.406       .  A
C1570      H1575   1.083       .  S
C1571      C1572   1.413       .  A
C1571      O1576   1.371       .  S
C1572      C1573   1.407       .  A
C1573      C1574   1.400       .  A
C1573      H1577   1.084       .  S
C1574      O1578   1.372       .  S
O1576      H1580   0.992       .  S
O1578      H1579   0.992       .  S
C1581      C1586   1.414       .  A
C1582      C1583   1.405   1_556  A
C1582      H1587   1.083       .  S
C1583      C1584   1.416       .  A
C1583      O1588   1.372       .  S
C1585      C1586   1.409   1_554  A
C1585      H1589   1.083       .  S
C1586      O1590   1.371       .  S
O1588      H1592   0.992       .  S
O1590      H1591   0.992       .  S
C1593      C1598   1.412       .  A
C1594      C1595   1.405   1_556  A
C1594      H1599   1.083       .  S
C1595      C1596   1.409       .  A
C1595      O1600   1.372       .  S
C1597      C1598   1.400   1_554  A
C1597      H1601   1.083       .  S
C1598      O1602   1.372       .  S
O1600      H1604   0.992       .  S
O1602      H1603   0.992       .  S
C1605      C1606   1.410       .  A
C1605      C1610   1.412       .  A
C1606      C1607   1.403       .  A
C1606      H1611   1.083       .  S
C1607      C1608   1.412       .  A
C1607      O1612   1.372       .  S
C1608      C1609   1.411       .  A
C1609      C1610   1.406       .  A
C1609      H1613   1.083       .  S
C1610      O1614   1.371       .  S
O1612      H1616   0.992       .  S
O1614      H1615   0.992       .  S
C1617      C1618   1.395       .  A
C1618      C1619   1.392       .  A
C1618      H1623   1.081       .  S
C1619      C1620   1.416       .  A
C1619      O1624   1.374       .  S
C1621      C1622   1.408       .  A
C1621      H1625   1.083       .  S
C1622      O1626   1.371       .  S
O1624      H1628   0.992       .  S
O1626      H1627   0.992       .  S
C1629      C1630   1.399       .  A
C1630      C1631   1.399       .  A
C1630      H1635   1.084       .  S
C1631      C1632   1.411       .  A
C1631      O1636   1.371       .  S
C1633      C1634   1.399       .  A
C1633      H1637   1.084       .  S
C1634      O1638   1.372       .  S
O1636      H1640   0.992       .  S
O1638      H1639   0.992       .  S
C1641      C1642   1.402       .  A
C1642      C1643   1.402       .  A
C1642      H1647   1.084       .  S
C1643      O1648   1.372       .  S
C1644      C1645   1.396       .  A
C1645      C1646   1.400       .  A
C1645      H1649   1.084       .  S
C1646      O1650   1.372       .  S
O1648      H1652   0.992       .  S
O1650      H1651   0.992       .  S
C1653      C1654   1.409       .  A
C1653      C1658   1.403       .  A
C1654      H1659   1.083       .  S
C1655      O1660   1.371       .  S
C1656      C1657   1.405       .  A
C1657      C1658   1.398       .  A
C1657      H1661   1.081       .  S
C1658      O1662   1.372       .  S
O1660      H1664   0.992       .  S
O1662      H1663   0.992       .  S
C1665      C1666   1.412       .  A
C1665      C1670   1.412       .  A
C1666      C1667   1.408       .  A
C1666      H1671   1.083       .  S
C1667      C1668   1.412       .  A
C1667      O1672   1.372       .  S
C1668      C1669   1.412       .  A
C1669      C1670   1.409       .  A
C1669      H1673   1.083       .  S
C1670      O1674   1.371       .  S
O1672      H1676   0.992       .  S
O1674      H1675   0.992       .  S
C1677      C1678   1.396       .  A
C1677      C1682   1.414       .  A
C1678      C1679   1.389       .  A
C1678      H1683   1.085       .  S
C1679      C1680   1.416       .  A
C1679      O1684   1.372       .  S
C1680      C1681   1.404       .  A
C1681      C1682   1.411       .  A
C1681      H1685   1.083       .  S
C1682      O1686   1.371       .  S
O1684      H1688   0.992       .  S
O1686      H1687   0.992       .  S
C1689      C1690   1.400       .  A
C1689      C1694   1.410       .  A
C1690      C1691   1.388       .  A
C1690      H1695   1.085       .  S
C1691      C1692   1.407       .  A
C1691      O1696   1.373       .  S
C1692      C1693   1.406       .  A
C1693      C1694   1.408       .  A
C1693      H1697   1.083       .  S
C1694      O1698   1.371       .  S
O1696      H1700   0.992       .  S
O1698      H1699   0.992       .  S
C1701      C1702   1.404       .  A
C1701      C1706   1.398       .  A
C1702      C1703   1.402       .  A
C1702      H1707   1.084       .  S
C1703      C1704   1.404       .  A
C1703      O1708   1.371       .  S
C1704      C1705   1.407       .  A
C1705      C1706   1.390       .  A
C1705      H1709   1.084       .  S
C1706      O1710   1.372       .  S
O1708      H1712   0.992       .  S
O1710      H1711   0.992       .  S
C1713      C1714   1.394       .  A
C1713      C1718   1.411       .  A
C1714      C1715   1.392       .  A
C1714      H1719   1.084       .  S
C1715      C1716   1.420       .  A
C1715      O1720   1.372       .  S
C1716      C1717   1.404       .  A
C1717      C1718   1.406       .  A
C1717      H1721   1.083       .  S
C1718      O1722   1.371       .  S
O1720      H1724   0.991       .  S
O1722      H1723   0.991       .  S
C1725      C1726   1.406       .  A
C1725      C1730   1.413       .  A
C1726      C1727   1.403       .  A
C1726      H1731   1.083       .  S
C1727      C1728   1.413       .  A
C1727      O1732   1.371       .  S
C1728      C1729   1.408       .  A
C1729      C1730   1.404       .  A
C1729      H1733   1.083       .  S
C1730      O1734   1.372       .  S
O1732      H1736   0.992       .  S
O1734      H1735   0.992       .  S
C1737      C1738   1.405       .  A
C1737      C1742   1.402       .  A
C1738      C1739   1.410       .  A
C1738      H1743   1.083       .  S
C1739      C1740   1.414       .  A
C1739      O1744   1.371       .  S
C1740      C1741   1.405       .  A
C1741      C1742   1.386       .  A
C1741      H1745   1.083       .  S
C1742      O1746   1.373       .  S
O1744      H1748   0.992       .  S
O1746      H1747   0.991       .  S
C1749      C1750   1.398       .  A
C1749      C1754   1.410       .  A
C1750      C1751   1.390       .  A
C1750      H1755   1.085       .  S
C1751      C1752   1.410       .  A
C1751      O1756   1.373       .  S
C1752      C1753   1.407       .  A
C1753      C1754   1.410       .  A
C1753      H1757   1.083       .  S
C1754      O1758   1.371       .  S
O1756      H1760   0.992       .  S
O1758      H1759   0.991       .  S
C1761      C1762   1.396       .  A
C1761      C1766   1.412       .  A
C1762      C1763   1.383       .  A
C1762      H1767   1.085       .  S
C1763      C1764   1.419       .  A
C1763      O1768   1.374       .  S
C1764      C1765   1.406       .  A
C1765      C1766   1.407       .  A
C1765      H1769   1.083       .  S
C1766      O1770   1.371       .  S
O1768      H1772   0.992       .  S
O1770      H1771   0.992       .  S
C1773      C1774   1.398       .  A
C1773      C1778   1.415       .  A
C1774      C1775   1.392       .  A
C1774      H1779   1.084       .  S
C1775      C1776   1.414       .  A
C1775      O1780   1.372       .  S
C1776      C1777   1.402       .  A
C1777      C1778   1.407       .  A
C1777      H1781   1.083       .  S
C1778      O1782   1.372       .  S
O1780      H1784   0.991       .  S
O1782      H1783   0.992       .  S
C1785      C1790   1.415   1_565  A
C1786      C1787   1.402       .  A
C1786      H1791   1.083       .  S
C1787      C1788   1.413       .  A
C1787      O1792   1.371       .  S
C1789      C1790   1.404       .  A
C1789      H1793   1.083       .  S
C1790      O1794   1.371       .  S
O1792      H1796   0.992       .  S
O1794      H1795   0.992       .  S
C1797      C1798   1.408       .  A
C1797      C1802   1.418       .  A
C1798      C1799   1.406       .  A
C1798      H1803   1.083       .  S
C1799      C1800   1.414       .  A
C1799      O1804   1.372       .  S
C1800      C1801   1.406       .  A
C1801      C1802   1.407       .  A
C1801      H1805   1.084       .  S
C1802      O1806   1.371       .  S
O1804      H1808   0.992       .  S
O1806      H1807   0.992       .  S
C1809      C1810   1.406       .  A
C1810      C1811   1.407       .  A
C1810      H1815   1.083       .  S
C1811      O1816   1.371       .  S
C1812      C1813   1.389       .  A
C1813      C1814   1.389       .  A
C1813      H1817   1.084       .  S
C1814      O1818   1.373       .  S
O1816      H1820   0.992       .  S
O1818      H1819   0.992       .  S
C1821      C1822   1.398       .  A
C1821      C1826   1.414       .  A
C1822      C1823   1.398       .  A
C1822      H1827   1.083       .  S
C1823      C1824   1.411       .  A
C1823      O1828   1.372       .  S
C1824      C1825   1.399       .  A
C1825      C1826   1.402       .  A
C1826      O1830   1.371       .  S
O1828      H1832   0.992       .  S
O1830      H1831   0.992       .  S
C1833      C1834   1.405       .  A
C1833      C1838   1.414   1_655  A
C1834      C1835   1.407       .  A
C1834      H1839   1.083       .  S
C1835      O1840   1.371       .  S
C1836      C1837   1.398       .  A
C1837      H1841   1.085       .  S
O1840      H1844   0.991       .  S
O1842      H1843   0.991       .  S
C1845      C1846   1.404       .  A
C1845      C1850   1.405       .  A
C1846      C1847   1.408       .  A
C1846      H1851   1.083       .  S
C1847      C1848   1.410       .  A
C1847      O1852   1.371       .  S
C1848      C1849   1.401       .  A
C1849      C1850   1.385       .  A
C1850      O1854   1.372       .  S
O1852      H1856   0.992       .  S
O1854      H1855   0.992       .  S
