geometry optimzed in LAMMPS
_audit_creation_date              2020-12-01 
_audit_creation_method            'lammps2cif' 
_symmetry_space_group_name_H-M    'P1' 
_symmetry_Int_Tables_number       1 
_symmetry_cell_setting            triclinic 
loop_ 
_symmetry_equiv_pos_as_xyz 
  x,y,z 
_cell_length_a                    27.70505522 
_cell_length_b                    27.669463356635035 
_cell_length_c                    28.095299921735002 
_cell_angle_alpha                 90.00560970497956 
_cell_angle_beta                  90.07470916769509 
_cell_angle_gamma                 120.22795951371937 
loop_ 
_atom_site_label 
_atom_site_type_symbol 
_atom_site_fract_x 
_atom_site_fract_y 
_atom_site_fract_z 
_atom_site_charge 
O1          O  0.88980003  0.20657714  0.16774076    -0.85600
O2          O  0.91403358  0.29228057  0.23151258    -0.82600
C3          C  0.90732961  0.32015914  0.26359440     0.97900
O4          O  0.85942630  0.31278173  0.27135259    -0.82700
O5          O  0.81409436  0.32126206  0.18550847    -0.85300
C6          C  0.78935239  0.30793878  0.14587553     1.02400
O7          O  0.76389660  0.25712630  0.13193278    -0.78100
O8          O  0.84181626  0.22451550  0.11569026    -0.78300
C9          C  0.88537540  0.22301246  0.12683372     1.02300
O10         O  0.80869778  0.13037932  0.23408022    -0.85600
O11         O  0.83702008  0.21218850  0.29794895    -0.82700
C12         C  0.79291435  0.20715400  0.31602100     0.97900
O13         O  0.75935300  0.21524423  0.29167672    -0.82700
O14         O  0.70939175  0.23233089  0.21392598    -0.85300
C15         C  0.67722851  0.18104774  0.20670387     1.02400
O16         O  0.69550887  0.15297363  0.18611675    -0.78100
O17         O  0.76830269  0.11684280  0.16421691    -0.78300
C18         C  0.77738412  0.09785040  0.20224787     1.02300
Cr19       Cr  0.85841412  0.21126661  0.23037324     1.93700
Cr20       Cr  0.78725062  0.26711839  0.23768826     1.93200
Cr21       Cr  0.77017514  0.19023931  0.15313846     1.39100
O22         O  0.80563918  0.22276525  0.20672007    -1.23300
O23         O  0.66691330  0.76007868  0.82404486    -0.85600
O24         O  0.63138209  0.73139976  0.73018924    -0.82600
C25         C  0.59035881  0.68215522  0.73099363     0.97900
O26         O  0.54855734  0.67029587  0.75658299    -0.82700
O27         O  0.47621939  0.68650810  0.81398551    -0.85300
C28         C  0.48563472  0.68582316  0.85795462     1.02400
O29         O  0.52943212  0.72504623  0.87660725    -0.78100
O30         O  0.64175805  0.79971140  0.87956072    -0.78300
C31         C  0.66573708  0.77260084  0.86714578     1.02300
O32         O  0.69006984  0.87008965  0.80647844    -0.85600
O33         O  0.64034121  0.83656195  0.71678265    -0.82700
C34         C  0.60159794  0.80859349  0.68722675     0.97900
O35         O  0.56183002  0.76045309  0.69752862    -0.82700
O36         O  0.49901003  0.78053315  0.75452640    -0.85300
C37         C  0.48715612  0.80179367  0.78852188     1.02400
O38         O  0.50706972  0.80439186  0.82972353    -0.78100
O39         O  0.61986709  0.87983653  0.82540768    -0.78300
C40         C  0.66945220  0.90124124  0.81086632     1.02300
Cr41       Cr  0.65223091  0.79776243  0.77134234     1.93700
Cr42       Cr  0.52579813  0.72773503  0.75905810     1.93200
Cr43       Cr  0.57573858  0.80081727  0.84886092     1.39100
O44         O  0.58410043  0.77453546  0.79362999    -1.23300
O45         O  0.78008313  0.67991900  0.50411746    -0.85600
O46         O  0.69204803  0.61845991  0.56574769    -0.82600
C47         C  0.66098242  0.58212184  0.59572070     0.97900
O48         O  0.66792361  0.54149124  0.60441029    -0.82700
O49         O  0.66471609  0.49000935  0.51861847    -0.85300
C50         C  0.68021697  0.47962225  0.47971351     1.02400
O51         O  0.73177113  0.50381988  0.46892401    -0.78100
O52         O  0.76174069  0.61312415  0.45258786    -0.78300
C53         C  0.76378387  0.65851792  0.46323891     1.02300
O54         O  0.85384748  0.67456789  0.57315109    -0.85600
O55         O  0.76886885  0.62045196  0.63520384    -0.82700
C56         C  0.77307853  0.58093723  0.65352060     0.97900
O57         O  0.76398347  0.53889649  0.62926255    -0.82700
O58         O  0.75298277  0.47469443  0.55162738    -0.85300
C59         C  0.80486462  0.49538181  0.54704196     1.02400
O60         O  0.83332661  0.54188790  0.52651378    -0.78100
O61         O  0.86823438  0.65054750  0.50255858    -0.78300
C62         C  0.88684201  0.67786918  0.54096571     1.02300
Cr63       Cr  0.77288271  0.64364657  0.56729687     1.93700
Cr64       Cr  0.71568691  0.51609571  0.57320448     1.93200
Cr65       Cr  0.79629874  0.57759352  0.49130523     1.39100
O66         O  0.76175507  0.57957747  0.54378030    -1.23300
O67         O  0.10018881  0.79520033  0.66653019    -0.85600
O68         O  0.06110292  0.70315542  0.72550240    -0.82600
C69         C  0.06085214  0.66939634  0.75564859     0.97900
O70         O  0.10464482  0.66750517  0.76292095    -0.82700
O71         O  0.15240102  0.66238453  0.67682780    -0.85300
C72         C  0.18194277  0.67738150  0.63969306     1.02400
O73         O  0.21379371  0.72909520  0.63048726    -0.78100
O74         O  0.14394235  0.77122097  0.61497581    -0.78300
C75         C  0.10305947  0.77746502  0.62570774     1.02300
O76         O  0.18122883  0.85922994  0.73826224    -0.85600
O77         O  0.13936343  0.77113080  0.79724840    -0.82700
C78         C  0.17962896  0.76890828  0.81617703     0.97900
O79         O  0.20885902  0.75461110  0.79218161    -0.82700
O80         O  0.25874256  0.74040194  0.71369432    -0.85300
C81         C  0.29472836  0.79164705  0.71297497     1.02400
O82         O  0.28360095  0.82539974  0.69224125    -0.78100
O83         O  0.22040406  0.87337074  0.66813202    -0.78300
C84         C  0.21264219  0.89220941  0.70679799     1.02300
Cr85       Cr  0.12399121  0.78083168  0.72959785     1.93700
Cr86       Cr  0.18020739  0.70987831  0.73371387     1.93200
Cr87       Cr  0.21255779  0.79744963  0.65488961     1.39100
O88         O  0.17194361  0.76286443  0.70594031    -1.23300
O89         O  0.31733877  0.21900881  0.32941726    -0.85600
O90         O  0.38174809  0.30646213  0.26716031    -0.82600
C91         C  0.41851940  0.33600981  0.23681381     0.97900
O92         O  0.45731987  0.32628835  0.22807225    -0.82700
O93         O  0.50891091  0.32922021  0.31355843    -0.85300
C94         C  0.51735118  0.31373228  0.35334086     1.02400
O95         O  0.49151978  0.26238747  0.36528378    -0.78100
O96         O  0.38262519  0.23367407  0.38143129    -0.78300
C97         C  0.33800286  0.23320573  0.37072155     1.02300
O98         O  0.32013538  0.14322035  0.26087901    -0.85600
O99         O  0.37624066  0.22736381  0.19882659    -0.82700
C100        C  0.41446362  0.22108679  0.18059860     0.97900
O101        O  0.45507124  0.22679932  0.20511251    -0.82700
O102        O  0.52036882  0.23859352  0.28260228    -0.85300
C103        C  0.49863769  0.18660782  0.28721954     1.02400
O104        O  0.45230300  0.15942747  0.30819410    -0.78100
O105        O  0.34442851  0.12707739  0.33078365    -0.78300
C106        C  0.31748690  0.10943071  0.29210122     1.02300
Cr107      Cr  0.35353901  0.22464516  0.26650987     1.93700
Cr108      Cr  0.48045695  0.27698863  0.26007141     1.93200
Cr109      Cr  0.41760902  0.19824975  0.34277606     1.39100
O110        O  0.41674772  0.23338009  0.29018615    -1.23300
O111        O  0.30555192  0.11050069  0.83122612    -0.85600
O112        O  0.36363326  0.07534355  0.88704635    -0.82600
C113        C  0.39612417  0.07567010  0.91842314     0.97900
O114        O  0.44032758  0.12063394  0.92800555    -0.82700
O115        O  0.49343460  0.16832230  0.84328504    -0.85300
C116        C  0.50575042  0.19510736  0.80481435     1.02400
O117        O  0.48470067  0.22534722  0.79400763    -0.78100
O118        O  0.37304277  0.15147754  0.77948502    -0.78300
C119        C  0.32583960  0.11085189  0.79096761     1.02300
O120        O  0.32152982  0.18978173  0.90283787    -0.85600
O121        O  0.37016298  0.15026474  0.96107036    -0.82700
C122        C  0.41130485  0.19280569  0.97940831     0.97900
O123        O  0.45388921  0.22442915  0.95518915    -0.82700
O124        O  0.51845087  0.27524003  0.87741059    -0.90100
C125        C  0.50121391  0.30941436  0.87380879     1.02400
O126        O  0.45557379  0.29496768  0.85290560    -0.78100
O127        O  0.34453531  0.22726103  0.83163405    -0.78300
C128        C  0.31920357  0.22035851  0.87101872     1.02300
Cr129      Cr  0.34480513  0.13475854  0.89348832     1.93700
Cr130      Cr  0.47211130  0.19615343  0.89834055     1.93200
Cr131      Cr  0.41404680  0.22221652  0.81771412     1.39100
O132        O  0.41005075  0.18455014  0.86983227    -1.23300
O133        O  0.10145033  0.31003216  0.50552371    -0.85600
O134        O  0.06938517  0.36570070  0.44077006    -0.82600
C135        C  0.07440863  0.40025971  0.40898463     0.97900
O136        O  0.12155120  0.44158313  0.39997984    -0.82700
O137        O  0.17056497  0.50135306  0.48165198    -0.85300
C138        C  0.19410168  0.51290099  0.52180260     1.02400
O139        O  0.22129550  0.48982950  0.53620953    -0.78100
O140        O  0.14907212  0.37951528  0.55480706    -0.78300
C141        C  0.10655521  0.33278030  0.54556194     1.02300
O142        O  0.18151820  0.31783848  0.43689645    -0.85600
O143        O  0.14423717  0.36355963  0.37314022    -0.82700
C144        C  0.18561590  0.40303563  0.35228534     0.97900
O145        O  0.22092496  0.44588606  0.37499325    -0.82700
O146        O  0.27396351  0.51910887  0.45016154    -0.85300
C147        C  0.30878058  0.50510713  0.46223533     1.02400
O148        O  0.29298587  0.45915738  0.48284147    -0.78100
O149        O  0.22547122  0.34929814  0.50494145    -0.78300
C150        C  0.21619443  0.32056900  0.46717816     1.02300
Cr151      Cr  0.12837959  0.34455609  0.44161685     1.93700
Cr152      Cr  0.19557979  0.47200176  0.42976605     1.93200
Cr153      Cr  0.21892665  0.41842493  0.51580667     1.39100
O154        O  0.18071028  0.41140006  0.46276598    -1.23300
O155        O  0.68599186  0.88292664  0.32990213    -0.85600
O156        O  0.64131722  0.93286048  0.38661180    -0.82600
C157        C  0.60858303  0.93707560  0.41522599     0.97900
O158        O  0.56253647  0.89494808  0.42602265    -0.82700
O159        O  0.50020300  0.83922926  0.34819269    -0.85300
C160        C  0.48433683  0.80981971  0.31116847     1.02400
O161        O  0.50208106  0.77656377  0.30162097    -0.78100
O162        O  0.61365521  0.84511386  0.28260822    -0.78300
C163        C  0.66319355  0.88329385  0.29105543     1.02300
O164        O  0.66620218  0.80657218  0.40611851    -0.85600
O165        O  0.63224463  0.86238945  0.46329941    -0.82700
C166        C  0.59002674  0.82750070  0.48649328     0.97900
O167        O  0.54494791  0.79441341  0.46540688    -0.82700
O168        O  0.47412690  0.73531891  0.39158081    -0.85300
C169        C  0.48772885  0.69834130  0.38690800     1.02400
O170        O  0.52992948  0.70817470  0.36250611    -0.78100
O171        O  0.63988704  0.76826959  0.33557439    -0.78300
C172        C  0.66610754  0.77453364  0.37440344     1.02300
Cr173      Cr  0.65135255  0.86754959  0.39452239     1.93700
Cr174      Cr  0.52466480  0.81613628  0.40486513     1.93200
Cr175      Cr  0.57227301  0.77762422  0.32394242     1.39100
O176        O  0.58276614  0.82039403  0.37460096    -1.23300
O177        O  0.24104522  0.33313099  0.01013145    -0.85600
O178        O  0.27469050  0.36971271  0.10322443    -0.82600
C179        C  0.32332618  0.41178812  0.10193134     0.97900
O180        O  0.33326740  0.45352812  0.07678763    -0.82700
O181        O  0.31179245  0.52400758  0.02121985    -0.85300
C182        C  0.31154417  0.51475624  0.97720273     1.02400
O183        O  0.27185329  0.47081847  0.95895789    -0.78100
O184        O  0.19835141  0.35741565  0.95678927    -0.78300
C185        C  0.22624245  0.33379012  0.96767488     1.02300
O186        O  0.13115444  0.30784966  0.03301108    -0.85600
O187        O  0.16933456  0.35848126  0.12150428    -0.82700
C188        C  0.19855251  0.39745528  0.15043365     0.97900
O189        O  0.24529534  0.43797937  0.13831599    -0.82700
O190        O  0.22022942  0.49886389  0.08378295    -0.85300
C191        C  0.19496418  0.50849870  0.05165221     1.02400
O192        O  0.19185382  0.48986275  0.00986016    -0.78100
O193        O  0.11905265  0.37685899  0.01458561    -0.78300
C194        C  0.09901693  0.32749024  0.02968850     1.02300
Cr195      Cr  0.20571731  0.34733372  0.06489973     1.93700
Cr196      Cr  0.27416400  0.47413911  0.07653213     1.93200
Cr197      Cr  0.19717868  0.42270229  0.98891482     1.39100
O198        O  0.22659652  0.41518124  0.04283280    -1.23300
O199        O  0.19586634  0.89208902  0.16500146    -0.85600
O200        O  0.28633168  0.92689316  0.10557159    -0.82600
C201        C  0.31911982  0.92567329  0.07532688     0.97900
O202        O  0.31893220  0.88087186  0.06744140    -0.82700
O203        O  0.32794110  0.83717238  0.15306078    -0.85300
C204        C  0.31506398  0.81148422  0.19210044     1.02400
O205        O  0.26394866  0.78082433  0.20388996    -0.78100
O206        O  0.22420393  0.85293562  0.21720496    -0.78300
C207        C  0.21638789  0.89254814  0.20534678     1.02300
O208        O  0.12975663  0.80796550  0.09622249    -0.85600
O209        O  0.21592870  0.84727210  0.03510970    -0.82700
C210        C  0.21691181  0.80574178  0.01733109     0.97900
O211        O  0.22950161  0.77593003  0.04231201    -0.82700
O212        O  0.24577454  0.72891411  0.12169506    -0.85300
C213        C  0.19442728  0.69422254  0.12567142     1.02400
O214        O  0.16319541  0.70786432  0.14726428    -0.78100
O215        O  0.11861606  0.77404463  0.16849483    -0.78300
C216        C  0.09822148  0.77902438  0.12945147     1.02300
Cr217      Cr  0.20834288  0.86521233  0.10269529     1.93700
Cr218      Cr  0.27699318  0.80669565  0.09881034     1.93200
Cr219      Cr  0.19462252  0.78142925  0.18078098     1.39100
O220        O  0.22640039  0.81784982  0.12747436    -1.23300
O221        O  0.78991139  0.10776115  0.67008647    -0.85600
O222        O  0.70093508  0.07656577  0.60906765    -0.82600
C223        C  0.67141984  0.07905333  0.57618116     0.97900
O224        O  0.67342744  0.12462289  0.56770761    -0.82700
O225        O  0.66597960  0.17252337  0.65132365    -0.85300
C226        C  0.67931090  0.19795052  0.69049251     1.02400
O227        O  0.73036053  0.22727729  0.70279579    -0.78100
O228        O  0.76573386  0.15252130  0.72009907    -0.78300
C229        C  0.77112379  0.11094001  0.71019518     1.02300
O230        O  0.86074609  0.18789520  0.60076986    -0.85600
O231        O  0.77537508  0.15122425  0.53837927    -0.82700
C232        C  0.77598431  0.19261755  0.51867542     0.97900
O233        O  0.76694877  0.22588364  0.54235092    -0.82700
O234        O  0.75223727  0.27857837  0.61872906    -0.85300
C235        C  0.80359862  0.31193375  0.62516743     1.02400
O236        O  0.83265781  0.29597054  0.64729679    -0.78100
O237        O  0.87226158  0.22678831  0.67116901    -0.78300
C238        C  0.89233136  0.21949465  0.63300788     1.02300
Cr239      Cr  0.78064253  0.13449782  0.60665325     1.93700
Cr240      Cr  0.71809936  0.19926650  0.59804589     1.93200
Cr241      Cr  0.79799702  0.22288277  0.68179119     1.39100
O242        O  0.76596319  0.18555736  0.62886599    -1.23300
O243        O  0.88426433  0.68403248  0.00419511    -0.85600
O244        O  0.91658287  0.62391450  0.94753730    -0.82600
C245        C  0.91475053  0.59043748  0.91634812     0.97900
O246        O  0.86923416  0.54619768  0.90821623    -0.82700
O247        O  0.81887428  0.49425051  0.99352179    -0.85300
C248        C  0.79040734  0.48166618  0.03110413     1.02400
O249        O  0.76233965  0.50522188  0.04144903    -0.78100
O250        O  0.83937464  0.61653078  0.05570539    -0.78300
C251        C  0.88147615  0.66293975  0.04472443     1.02300
O252        O  0.80590143  0.67080298  0.93180061    -0.85600
O253        O  0.84277773  0.61971810  0.87389144    -0.82700
C254        C  0.80077473  0.57838981  0.85506901     0.97900
O255        O  0.76781286  0.53626444  0.87931993    -0.82700
O256        O  0.71421088  0.47312917  0.95756126    -0.85300
C257        C  0.68103868  0.49153139  0.96144538     1.02400
O258        O  0.69694128  0.53815855  0.98114953    -0.78100
O259        O  0.76749905  0.64910136  0.00255948    -0.78300
C260        C  0.77607215  0.67492100  0.96319431     1.02300
Cr261      Cr  0.85879215  0.64498454  0.94154714     1.93700
Cr262      Cr  0.79375431  0.51711074  0.93737869     1.93200
Cr263      Cr  0.76929128  0.57768461  0.01687093     1.39100
O264        O  0.80723133  0.58023346  0.96525501    -1.23300
C265        C  0.03715576  0.75135874  0.12049879    -0.05700
C266        C  0.00229571  0.69365452  0.12808313    -0.33100
C267        C  0.94904581  0.66437187  0.10659817     0.36100
C268        C  0.92982921  0.69307900  0.07765613    -0.06100
C269        C  0.96300291  0.75144664  0.07375127    -0.33000
C270        C  0.01588245  0.78041822  0.09481194     0.36000
H271        H  0.01813475  0.67045757  0.14712572     0.16400
O272        O  0.91841001  0.60725091  0.11077478    -0.60500
H273        H  0.94920019  0.77449262  0.05190156     0.16400
O274        O  0.04830575  0.83687251  0.08697075    -0.60600
H275        H  0.04481209  0.85477977  0.11631154     0.43400
H276        H  0.93061536  0.59263879  0.08394935     0.43300
C277        C  0.17325216  0.63902587  0.10371071    -0.05700
C278        C  0.18306353  0.63699986  0.05483801    -0.33100
C279        C  0.18296232  0.59060751  0.03503162     0.36100
C280        C  0.17340332  0.54576002  0.06454970    -0.06100
C281        C  0.15636925  0.54487017  0.11201902    -0.33000
C282        C  0.15640149  0.59131137  0.13173622     0.36000
H283        H  0.19584191  0.67342692  0.03273557     0.16400
O284        O  0.20028730  0.59326856  0.98891789    -0.60500
H285        H  0.14849801  0.51033842  0.13520753     0.16400
O286        O  0.14749368  0.59242331  0.17961960    -0.60600
H287        H  0.10747221  0.58096799  0.18253216     0.43400
H288        H  0.16599718  0.57940746  0.96937192     0.43300
C289        C  0.36002172  0.81410945  0.22231943    -0.05700
C290        C  0.35552238  0.81407496  0.27194492    -0.33100
C291        C  0.39657302  0.81408447  0.30105217     0.36100
C292        C  0.44219536  0.81228860  0.28063140    -0.06100
C293        C  0.44700604  0.81277640  0.23099677    -0.33000
C294        C  0.40702909  0.81492264  0.20185289     0.36000
H295        H  0.32013699  0.81419006  0.28821568     0.16400
O296        O  0.39108368  0.81467622  0.34953043    -0.60500
H297        H  0.48212555  0.81207197  0.21479625     0.16400
O298        O  0.41293409  0.81509625  0.15336409    -0.60600
H299        H  0.43861912  0.85480730  0.14485484     0.43400
H300        H  0.36800988  0.77482770  0.35882666     0.43300
C301        C  0.62957405  0.98345367  0.44887050    -0.05700
C302        C  0.67506705  0.99172023  0.47671807    -0.33100
C303        C  0.68436390  0.01646012  0.52141923     0.36100
C304        C  0.65045775  0.03756106  0.53767010    -0.06100
C305        C  0.60622781  0.03156024  0.50882695    -0.33000
C306        C  0.59488861  0.00349477  0.46515613     0.36000
H307        H  0.70102352  0.97478606  0.46553222     0.16400
O308        O  0.72856509  0.02215532  0.54791896    -0.60500
H309        H  0.58079630  0.04905158  0.52007066     0.16400
O310        O  0.54882882  0.99402658  0.43940724    -0.60600
H311        H  0.56220033  0.02681204  0.41802600     0.43400
H312        H  0.71296287  0.98789804  0.56775723     0.43300
C313        C  0.36758604  0.54589674  0.45284113    -0.05700
C314        C  0.39068797  0.54366694  0.40893595    -0.33100
C315        C  0.43386565  0.59263336  0.38819445     0.36100
C316        C  0.45317555  0.64435200  0.41119208    -0.06100
C317        C  0.43398858  0.64533730  0.45720763    -0.33000
C318        C  0.39153214  0.59665227  0.47801299     0.36000
H319        H  0.37147477  0.50515939  0.38855683     0.16400
O320        O  0.45186743  0.59036706  0.34327059    -0.60500
H321        H  0.44932411  0.68471467  0.47584952     0.16400
O322        O  0.36975620  0.59998821  0.52095085    -0.60600
H323        H  0.34301545  0.61279537  0.51331012     0.43400
H324        H  0.48575954  0.58742573  0.34811230     0.43300
C325        C  0.18344007  0.39613345  0.20050695    -0.05700
C326        C  0.20658318  0.44775325  0.22428849    -0.33100
C327        C  0.20966188  0.45054329  0.27359247     0.36100
C328        C  0.18749066  0.40100259  0.30024702    -0.06100
C329        C  0.16013723  0.34899546  0.27665110    -0.33000
C330        C  0.15843718  0.34632155  0.22691693     0.36000
H331        H  0.22530541  0.48657986  0.20437739     0.16400
O332        O  0.23297585  0.50190015  0.29529678    -0.60500
H333        H  0.14114062  0.31036898  0.29679672     0.16400
O334        O  0.13485752  0.29526171  0.20471628    -0.60600
H335        H  0.16544067  0.28667857  0.20182072     0.43400
H336        H  0.27369131  0.51582367  0.29613135     0.43300
C337        C  0.05979846  0.30458877  0.58006686    -0.05700
C338        C  0.03839308  0.33523006  0.60268085    -0.33100
C339        C  0.98544205  0.30773653  0.62445706     0.36100
C340        C  0.95329571  0.24885398  0.62398321    -0.06100
C341        C  0.97683340  0.21843868  0.60502672    -0.33000
C342        C  0.02957072  0.24577225  0.58337824     0.36000
H343        H  0.06053164  0.38043742  0.59995368     0.16400
O344        O  0.96288313  0.33873974  0.64089679    -0.60500
H345        H  0.95279656  0.17313015  0.60450658     0.16400
O346        O  0.05058720  0.21458407  0.56411462    -0.60600
H347        H  0.03015360  0.19970673  0.53371202     0.43400
H348        H  0.97303879  0.34513827  0.67509285     0.43300
C349        C  0.53505654  0.36486604  0.89592381    -0.05700
C350        C  0.53838287  0.36793191  0.94588504    -0.33100
C351        C  0.58282243  0.41375414  0.96875779     0.36100
C352        C  0.62464504  0.45713400  0.94154641    -0.06100
C353        C  0.61837217  0.45663309  0.89184587    -0.33000
C354        C  0.57378499  0.41080895  0.86895638     0.36000
H355        H  0.50909651  0.33267460  0.96716685     0.16400
O356        O  0.58861003  0.41251109  0.01715854    -0.60500
H357        H  0.65095245  0.48928788  0.87040091     0.16400
O358        O  0.57233558  0.40836201  0.82020559    -0.60600
H359        H  0.54960265  0.42520428  0.81052799     0.43400
H360        H  0.56835848  0.43046584  0.03050769     0.43300
C361        C  0.54900224  0.19472782  0.77489195    -0.05700
C362        C  0.59498089  0.19564592  0.79707095    -0.33100
C363        C  0.63810503  0.19728100  0.77009710     0.36100
C364        C  0.63475051  0.19622857  0.72019334    -0.06100
C365        C  0.58799837  0.19383551  0.69801854    -0.33000
C366        C  0.54571903  0.19400462  0.72502901     0.36000
H367        H  0.59803203  0.19618573  0.83555228     0.16400
O368        O  0.68225603  0.19784931  0.79279669    -0.60500
H369        H  0.58471884  0.19289049  0.65955089     0.16400
O370        O  0.50050066  0.19137398  0.70249902    -0.60600
H371        H  0.51218066  0.23064855  0.69440959     0.43400
H372        H  0.70773608  0.23749909  0.80165583     0.43300
C373        C  0.24017492  0.30408956  0.93147162    -0.05700
C374        C  0.28671619  0.33401019  0.90169474    -0.33100
C375        C  0.30991621  0.30629783  0.87689880     0.36100
C376        C  0.28669532  0.24810748  0.88224031    -0.06100
C377        C  0.23730922  0.21800144  0.90881935    -0.33000
C378        C  0.21409457  0.24551372  0.93320200     0.36000
H379        H  0.30765799  0.37926982  0.90060470     0.16400
O380        O  0.35892590  0.33720905  0.85247823    -0.60500
H381        H  0.21885919  0.17324077  0.91347802     0.16400
O382        O  0.16860933  0.21523267  0.96194038    -0.60600
H383        H  0.13576021  0.20591258  0.94161249     0.43400
H384        H  0.34745952  0.33894400  0.81937385     0.43300
C385        C  0.34357239  0.96895578  0.03887059    -0.05700
C386        C  0.30702168  0.98234692  0.01585204    -0.33100
C387        C  0.32184016  0.01159939  0.97320067     0.36100
C388        C  0.37549143  0.03106088  0.95405948    -0.06100
C389        C  0.41270111  0.01846197  0.97741408    -0.33000
C390        C  0.39618022  0.98575904  0.01880618     0.36000
H391        H  0.26541880  0.96762872  0.02977458     0.16400
O392        O  0.28473589  0.02417419  0.95224039    -0.60500
H393        H  0.45460241  0.03443365  0.96379244     0.16400
O394        O  0.43188617  0.97146402  0.03997736    -0.60600
H395        H  0.42714901  0.93853534  0.02193074     0.43400
H396        H  0.26076515  0.99154017  0.93172184     0.43300
C397        C  0.23363353  0.94181959  0.23707778    -0.05700
C398        C  0.27887957  0.95894109  0.26869546    -0.33100
C399        C  0.30396393  0.01193906  0.29059361     0.36100
C400        C  0.28381961  0.04873105  0.28104420    -0.06100
C401        C  0.23595444  0.02970661  0.25254900    -0.33000
C402        C  0.21081378  0.97697728  0.23094529     0.36000
H403        H  0.29750457  0.93300532  0.27374273     0.16400
O404        O  0.35170430  0.02953759  0.31686497    -0.60500
H405        H  0.21960094  0.05715637  0.24489211     0.16400
O406        O  0.16586382  0.96176553  0.20151062    -0.60600
H407        H  0.13261184  0.93806409  0.22136740     0.43400
H408        H  0.33872449  0.01845520  0.35005407     0.43300
C409        C  0.41147620  0.20227010  0.03039658    -0.05700
C410        C  0.46258580  0.22776695  0.05470115    -0.33100
C411        C  0.46404352  0.23283905  0.10391011     0.36100
C412        C  0.41375021  0.21227115  0.12939511    -0.06100
C413        C  0.36267905  0.18807934  0.10494854    -0.33000
C414        C  0.36122818  0.18263685  0.05566928     0.36000
H415        H  0.50157118  0.24297963  0.03562413     0.16400
O416        O  0.51488608  0.25903633  0.12652652    -0.60500
H417        H  0.32378960  0.17336677  0.12405865     0.16400
O418        O  0.31083128  0.15976899  0.03243708    -0.60600
H419        H  0.29426148  0.11870361  0.03546515     0.43400
H420        H  0.52630266  0.29924971  0.12709219     0.43300
C421        C  0.41053173  0.37400631  0.20487600    -0.05700
C422        C  0.37570458  0.39412018  0.21932430    -0.33100
C423        C  0.35243105  0.41377251  0.18576733     0.36100
C424        C  0.36386082  0.41351156  0.13682023    -0.06100
C425        C  0.40411818  0.40018352  0.12288328    -0.33000
C426        C  0.42790321  0.38083119  0.15659101     0.36000
H427        H  0.36286698  0.39049640  0.25620050     0.16400
O428        O  0.31544349  0.42962755  0.20087507    -0.60500
H429        H  0.41334718  0.39981899  0.08545829     0.16400
O430        O  0.46412642  0.36402700  0.14111777    -0.60600
H431        H  0.44058388  0.32815116  0.12424103     0.43400
H432        H  0.28316068  0.39522436  0.21390739     0.43300
C433        C  0.30828453  0.24948585  0.40576553    -0.05700
C434        C  0.24965739  0.21970609  0.40594084    -0.33100
C435        C  0.21928258  0.23966175  0.43054364     0.36100
C436        C  0.24709779  0.29094594  0.45537039    -0.06100
C437        C  0.30581111  0.31893990  0.45824519    -0.33000
C438        C  0.33642515  0.29853014  0.43369710     0.36000
H439        H  0.22711932  0.18189391  0.38491773     0.16400
O440        O  0.16211357  0.21063945  0.42710689    -0.60500
H441        H  0.32817097  0.35904853  0.47610628     0.16400
O442        O  0.39361555  0.33009562  0.43295968    -0.60600
H443        H  0.40629450  0.31590121  0.45975533     0.43400
H444        H  0.14900242  0.18729277  0.45622428     0.43300
C445        C  0.19118857  0.55521511  0.55155863    -0.05700
C446        C  0.18111491  0.54577252  0.60040761    -0.33100
C447        C  0.17641291  0.58451222  0.62910560     0.36100
C448        C  0.18321190  0.63446336  0.60920583    -0.06100
C449        C  0.19470205  0.64451603  0.56042991    -0.33000
C450        C  0.19801103  0.60501834  0.53151440     0.36000
H451        H  0.17618668  0.50786037  0.61630769     0.16400
O452        O  0.16799834  0.57439786  0.67703793    -0.60500
H453        H  0.20099551  0.68300567  0.54465551     0.16400
O454        O  0.21065969  0.61666670  0.48417885    -0.60600
H455        H  0.17491676  0.60748976  0.46856890     0.43400
H456        H  0.12708916  0.54953518  0.68069267     0.43300
C457        C  0.01731561  0.64501791  0.79244993    -0.05700
C458        C  0.00090614  0.59192043  0.81139938    -0.33100
C459        C  0.96975272  0.57394164  0.85364641     0.36100
C460        C  0.95747130  0.61046497  0.87883722    -0.06100
C461        C  0.97528550  0.66392367  0.86040023    -0.33000
C462        C  0.00345049  0.68066749  0.81714543     0.36000
H463        H  0.01271897  0.56467595  0.79361081     0.16400
O464        O  0.95110966  0.52064280  0.86976608    -0.60500
H465        H  0.96469251  0.69204029  0.87832860     0.16400
O466        O  0.02017732  0.73350447  0.80077499    -0.60600
H467        H  0.98831332  0.72960016  0.78161506     0.43400
H468        H  0.97947569  0.52422889  0.89326092     0.43300
C469        C  0.23935067  0.95307168  0.71727964    -0.05700
C470        C  0.21024402  0.97066500  0.74676862    -0.33100
C471        C  0.23689787  0.02358325  0.76785823     0.36100
C472        C  0.29417272  0.06116451  0.75942665    -0.06100
C473        C  0.32220770  0.04570543  0.72628602    -0.33000
C474        C  0.29524105  0.99192742  0.70541835     0.36000
H475        H  0.16694722  0.94193425  0.75575776     0.16400
O476        O  0.20675907  0.03736204  0.79807218    -0.60500
H477        H  0.36616964  0.07368272  0.71919988     0.16400
O478        O  0.32499831  0.97663953  0.67631078    -0.60600
H479        H  0.34319341  0.96226895  0.69797653     0.43400
H480        H  0.20300930  0.01670479  0.82799359     0.43300
C481        C  0.19008538  0.77989704  0.86747194    -0.05700
C482        C  0.22483252  0.76421067  0.89098689    -0.33100
C483        C  0.23329753  0.77156843  0.93996982     0.36100
C484        C  0.20658823  0.79472535  0.96626587    -0.06100
C485        C  0.17239411  0.81099015  0.94283942    -0.33000
C486        C  0.16402352  0.80385633  0.89387761     0.36000
H487        H  0.24526288  0.74573193  0.87152709     0.16400
O488        O  0.26857664  0.75695385  0.96153030    -0.60500
H489        H  0.15199567  0.82935133  0.96258050     0.16400
O490        O  0.13005508  0.82025377  0.87244464    -0.60600
H491        H  0.15515164  0.85991560  0.86345528     0.43400
H492        H  0.30583332  0.79142079  0.96114830     0.43300
C493        C  0.82956404  0.46313571  0.56605958    -0.05700
C494        C  0.83205740  0.42373049  0.53661024    -0.33100
C495        C  0.83192115  0.37724140  0.55639764     0.36100
C496        C  0.82753025  0.36898637  0.60610228    -0.06100
C497        C  0.83174903  0.41163313  0.63563042    -0.33000
C498        C  0.83361215  0.45900828  0.61584329     0.36000
H499        H  0.82877166  0.42614092  0.49834217     0.16400
O500        O  0.83037138  0.33732881  0.52660929    -0.60500
H501        H  0.82849859  0.40595663  0.67389488     0.16400
O502        O  0.83315098  0.49789330  0.64570281    -0.60600
H503        H  0.87127362  0.53097781  0.64375381     0.43400
H504        H  0.86978155  0.34666539  0.52348944     0.43300
C505        C  0.55940341  0.35572276  0.38543131    -0.05700
C506        C  0.54879223  0.35223235  0.43436219    -0.33100
C507        C  0.58760415  0.39248785  0.46543925     0.36100
C508        C  0.63827640  0.43688905  0.44763497    -0.06100
C509        C  0.64939452  0.43942450  0.39872470    -0.33000
C510        C  0.61018492  0.39954526  0.36759779     0.36000
H511        H  0.50996442  0.31854432  0.44847425     0.16400
O512        O  0.57579445  0.38751639  0.51318816    -0.60500
H513        H  0.68836736  0.47271087  0.38447112     0.16400
O514        O  0.62285326  0.40234664  0.32011375    -0.60600
H515        H  0.61426153  0.43025583  0.30652813     0.43400
H516        H  0.59223725  0.36566994  0.52621096     0.43300
C517        C  0.94777977  0.71245626  0.55044712    -0.05700
C518        C  0.98342347  0.69141300  0.54014244    -0.33100
C519        C  0.03687388  0.71530090  0.56102708     0.36100
C520        C  0.05554242  0.76137593  0.59227180    -0.06100
C521        C  0.02206788  0.78579059  0.59815735    -0.33000
C522        C  0.96869180  0.76164359  0.57786812     0.36000
H523        H  0.96811083  0.65355213  0.51924070     0.16400
O524        O  0.06836982  0.69043442  0.55371692    -0.60500
H525        H  0.03582716  0.82181550  0.62119403     0.16400
O526        O  0.93632150  0.78532809  0.58645626    -0.60600
H527        H  0.92258969  0.77458119  0.61953910     0.43400
H528        H  0.05656309  0.66145172  0.57881898     0.43300
C529        C  0.79299227  0.57860364  0.80371323    -0.05700
C530        C  0.81176738  0.62977443  0.78038276    -0.33100
C531        C  0.80721677  0.63156481  0.73115316     0.36100
C532        C  0.78366206  0.58154954  0.70465383    -0.06100
C533        C  0.76624324  0.53056289  0.72801350    -0.33000
C534        C  0.77051369  0.52877318  0.77722914     0.36000
H535        H  0.82984638  0.66850830  0.80041798     0.16400
O536        O  0.82567963  0.68231556  0.70947375    -0.60500
H537        H  0.74808541  0.49164386  0.70826920     0.16400
O538        O  0.75487123  0.47851783  0.79880514    -0.60600
H539        H  0.71382824  0.46034809  0.80297152     0.43400
H540        H  0.86459375  0.69484408  0.69961283     0.43300
C541        C  0.74615863  0.68788097  0.42905495    -0.05700
C542        C  0.77207736  0.74630837  0.43203829    -0.33100
C543        C  0.74899199  0.77518507  0.40985335     0.36100
C544        C  0.69829774  0.74592711  0.38446355    -0.06100
C545        C  0.67490079  0.68802296  0.37742875    -0.33000
C546        C  0.69875852  0.65894466  0.39932527     0.36000
H547        H  0.80900664  0.76960106  0.45392592     0.16400
O548        O  0.77432685  0.83197964  0.41618861    -0.60500
H549        H  0.63586549  0.66469578  0.35819283     0.16400
O550        O  0.67206190  0.60181298  0.39550458    -0.60600
H551        H  0.69013263  0.59449497  0.36818833     0.43400
H552        H  0.79642508  0.84847824  0.38684766     0.43300
C553        C  0.34799670  0.80944590  0.73787769    -0.05700
C554        C  0.34573799  0.78543191  0.78256770    -0.33100
C555        C  0.39347531  0.78933977  0.80320519     0.36100
C556        C  0.44454052  0.81732499  0.77891586    -0.06100
C557        C  0.44793394  0.84571865  0.73625954    -0.33000
C558        C  0.39998379  0.84210525  0.71573455     0.36000
H559        H  0.30598503  0.75999234  0.80006445     0.16400
O560        O  0.38845096  0.76029722  0.84427076    -0.60500
H561        H  0.48692749  0.86658942  0.71672962     0.16400
O562        O  0.40357469  0.86606090  0.67217273    -0.60600
H563        H  0.40141809  0.83842460  0.64850846     0.43400
H564        H  0.37775554  0.72190940  0.83380846     0.43300
C565        C  0.44332619  0.63965377  0.88819652    -0.05700
C566        C  0.44531878  0.64621094  0.93781361    -0.33100
C567        C  0.40339076  0.60599396  0.96704139     0.36100
C568        C  0.35808858  0.55709902  0.94703579    -0.06100
C569        C  0.35724976  0.54958692  0.89750239    -0.33000
C570        C  0.39920618  0.59003265  0.86826430     0.36000
H571        H  0.47881737  0.68354771  0.95420545     0.16400
O572        O  0.40743751  0.61528525  0.01522711    -0.60500
H573        H  0.32356770  0.51241943  0.88109468     0.16400
O574        O  0.39612445  0.58067262  0.82012809    -0.60600
H575        H  0.41597260  0.55969554  0.81474279     0.43400
H576        H  0.39135625  0.63972338  0.02084552     0.43300
C577        C  0.62459585  0.59267122  0.62725687    -0.05700
C578        C  0.60978930  0.63188408  0.61316542    -0.33100
C579        C  0.59288348  0.65734137  0.64681139     0.36100
C580        C  0.58955608  0.64300017  0.69535642    -0.06100
C581        C  0.59765564  0.59905038  0.70887959    -0.33000
C582        C  0.61519795  0.57371982  0.67516717     0.36000
H583        H  0.61589400  0.64643456  0.57665467     0.16400
O584        O  0.58330778  0.69906821  0.63229457    -0.60500
H585        H  0.59533768  0.58780136  0.74609673     0.16400
O586        O  0.62779520  0.53420900  0.69040208    -0.60600
H587        H  0.66458356  0.55548329  0.70644251     0.43400
H588        H  0.62076725  0.73154286  0.62540775     0.43300
C589        C  0.69519592  0.75700428  0.90234002    -0.05700
C590        C  0.75297542  0.78016318  0.89773332    -0.33100
C591        C  0.78086160  0.75746263  0.92228711     0.36100
C592        C  0.75078156  0.70966785  0.95125116    -0.06100
C593        C  0.69360551  0.68927870  0.95899152    -0.33000
C594        C  0.66576104  0.71281656  0.93475867     0.36000
H595        H  0.77614061  0.81418471  0.87296906     0.16400
O596        O  0.83704348  0.77967741  0.91477429    -0.60500
H597        H  0.66958488  0.65222861  0.98051300     0.16400
O598        O  0.60894832  0.68859128  0.93910030    -0.60600
H599        H  0.60322626  0.70613244  0.96767712     0.43400
H600        H  0.85553482  0.80743414  0.94063235     0.43300
C601        C  0.70209367  0.96043980  0.79432697    -0.05700
C602        C  0.74887176  0.97604569  0.76509806    -0.33100
C603        C  0.77403975  0.02657870  0.74011354     0.36100
C604        C  0.75324284  0.06364204  0.74422057    -0.06100
C605        C  0.70986046  0.05065918  0.77684330    -0.33000
C606        C  0.68397138  0.99932495  0.80144421     0.36000
H607        H  0.76419780  0.94744035  0.75907052     0.16400
O608        O  0.81714045  0.03774893  0.70970538    -0.60500
H609        H  0.69347642  0.07865153  0.78102025     0.16400
O610        O  0.64016268  0.98709491  0.83130345    -0.60600
H611        H  0.60700054  0.97323635  0.81027934     0.43400
H612        H  0.85164507  0.06212328  0.72802767     0.43300
C613        C  0.60243739  0.82752767  0.63836623    -0.05700
C614        C  0.55076444  0.81106775  0.61655711    -0.33100
C615        C  0.54616419  0.81154514  0.56721995     0.36100
C616        C  0.59378540  0.82856718  0.53879128    -0.06100
C617        C  0.64631811  0.84973923  0.56082954    -0.33000
C618        C  0.65088224  0.84938886  0.61039668     0.36000
H619        H  0.51314850  0.79477863  0.63785543     0.16400
O620        O  0.49474737  0.79412137  0.54727641    -0.60500
H621        H  0.68370716  0.86445791  0.53952713     0.16400
O622        O  0.70175571  0.86500194  0.63059368    -0.60600
H623        H  0.71761416  0.90492995  0.63923395     0.43400
H624        H  0.49259925  0.82862059  0.54339757     0.43300
C625        C  0.52866400  0.16030682  0.26608940    -0.05700
C626        C  0.53516791  0.16314721  0.21633697    -0.33100
C627        C  0.58015978  0.16177596  0.19500289     0.36100
C628        C  0.61912739  0.15673060  0.22342398    -0.06100
C629        C  0.60889560  0.14718303  0.27256154    -0.33000
C630        C  0.56415614  0.14930629  0.29403045     0.36000
H631        H  0.50871792  0.17233053  0.19428571     0.16400
O632        O  0.58997093  0.17328356  0.14736221    -0.60500
H633        H  0.63915257  0.14433978  0.29509062     0.16400
O634        O  0.55914748  0.14661644  0.34266020    -0.60600
H635        H  0.58488471  0.18520103  0.35408192     0.43400
H636        H  0.57432171  0.13626994  0.13169455     0.43300
C637        C  0.78757046  0.35169760  0.11692976    -0.05700
C638        C  0.78398865  0.34671645  0.06726088    -0.33100
C639        C  0.78388068  0.38843348  0.03924877     0.36100
C640        C  0.78705568  0.43608308  0.06078560    -0.06100
C641        C  0.78773290  0.43982188  0.11047707    -0.33000
C642        C  0.78858054  0.39838563  0.13856939     0.36000
H643        H  0.78219106  0.31081151  0.05001117     0.16400
O644        O  0.78035406  0.38206134  0.99071083    -0.60500
H645        H  0.78903186  0.47558726  0.12753540     0.16400
O646        O  0.78859017  0.40304129  0.18718443    -0.60600
H647        H  0.82803185  0.42940968  0.19596048     0.43400
H648        H  0.73999261  0.36466758  0.98320788     0.43300
C649        C  0.93381526  0.24219998  0.09345325    -0.05700
C650        C  0.97159979  0.22303632  0.10068216    -0.33100
C651        C  0.02338611  0.24765196  0.07749582     0.36100
C652        C  0.03971469  0.29378148  0.04667028    -0.06100
C653        C  0.00044156  0.31065064  0.03687428    -0.33000
C654        C  0.94764858  0.28469893  0.05931157     0.36000
H655        H  0.96199288  0.19002121  0.12618246     0.16400
O656        O  0.05943147  0.22892164  0.08851049    -0.60500
H657        H  0.01138949  0.34543608  0.01304884     0.16400
O658        O  0.91192069  0.30432716  0.05033945    -0.60600
H659        H  0.88962386  0.28268641  0.02237898     0.43400
H660        H  0.04864024  0.19645967  0.06720482     0.43300
C661        C  0.03056314  0.38700310  0.37332234    -0.05700
C662        C  0.04700406  0.39625172  0.32509464    -0.33100
C663        C  0.00761244  0.37689761  0.28849798     0.36100
C664        C  0.95075814  0.35034682  0.29976134    -0.06100
C665        C  0.93435708  0.34460530  0.34802441    -0.33000
C666        C  0.97385033  0.36188830  0.38473103     0.36000
H667        H  0.09069562  0.41578807  0.31547459     0.16400
O668        O  0.02499267  0.38343089  0.24201743    -0.60500
H669        H  0.89049890  0.32340851  0.35747369     0.16400
O670        O  0.95658237  0.35261275  0.43124600    -0.60600
H671        H  0.95352604  0.38554470  0.44051877     0.43400
H672        H  0.03565348  0.35458271  0.23665471     0.43300
C673        C  0.69424162  0.93101521  0.25767713    -0.05700
C674        C  0.66486176  0.94833270  0.22787285    -0.33100
C675        C  0.69231390  0.00108262  0.20558360     0.36100
C676        C  0.75016222  0.03698834  0.21223529    -0.06100
C677        C  0.78011480  0.01743193  0.23841886    -0.33000
C678        C  0.75283853  0.96531421  0.26109890     0.36000
H679        H  0.61982795  0.92302441  0.22491317     0.16400
O680        O  0.66142919  0.01900030  0.18099391    -0.60500
H681        H  0.82466037  0.04429797  0.24388846     0.16400
O682        O  0.78374874  0.94921539  0.28798154    -0.60600
H683        H  0.79222532  0.97093050  0.31799420     0.43400
H684        H  0.64741024  0.03474313  0.20546375     0.43300
C685        C  0.78499225  0.19927978  0.36728819    -0.05700
C686        C  0.76232618  0.22740372  0.39160228    -0.33100
C687        C  0.76068625  0.22712678  0.44104063     0.36100
C688        C  0.78193748  0.19821976  0.46688981    -0.06100
C689        C  0.80385620  0.16932608  0.44239149    -0.33000
C690        C  0.80591180  0.17008673  0.39287022     0.36000
H691        H  0.74703459  0.25091662  0.37226343     0.16400
O692        O  0.73744972  0.25456143  0.46350014    -0.60500
H693        H  0.81935463  0.14592845  0.46161536     0.16400
O694        O  0.82700140  0.14102207  0.36975920    -0.60600
H695        H  0.86819093  0.16513354  0.37179869     0.43400
H696        H  0.69720377  0.22640606  0.46665455     0.43300
loop_ 
_geom_bond_atom_site_label_1 
_geom_bond_atom_site_label_2 
_geom_bond_distance 
_geom_bond_site_symmetry_2 
_ccdc_geom_bond_type 
O1          Cr19   1.997       .  S
O1            C9   1.264       .  A
O2          Cr19   1.980       .  S
O2            C3   1.260       .  A
C3            O4   1.256       .  A
C3          C664   1.471       .  S
O4          Cr20   1.985       .  S
O5          Cr20   1.957       .  S
O5            C6   1.261       .  A
C6            O7   1.276       .  A
C6          C637   1.480       .  S
O7          Cr21   2.033       .  S
O8          Cr21   2.014       .  S
O8            C9   1.267       .  A
C9          C649   1.499       .  S
O10         Cr19   1.953       .  S
O10          C18   1.255       .  A
O11         Cr19   1.994       .  S
O11          C12   1.265       .  A
C12          O13   1.261       .  A
C12         C685   1.457       .  S
O13         Cr20   1.961       .  S
O14         Cr20   1.983       .  S
O14          C15   1.255       .  A
C15          O16   1.261       .  A
C15         C628   1.475       .  S
O16         Cr21   2.015       .  S
O17         Cr21   2.029       .  S
O17          C18   1.270       .  A
C18         C676   1.485       .  S
Cr19         O22   1.774       .  S
Cr20         O22   1.776       .  S
Cr21         O22   1.774       .  S
O23         Cr41   1.967       .  S
O23          C31   1.264       .  A
O24         Cr41   1.993       .  S
O24          C25   1.261       .  A
C25          O26   1.259       .  A
C25         C580   1.467       .  S
O26         Cr42   1.984       .  S
O27         Cr42   1.999       .  S
O27          C28   1.264       .  A
C28          O29   1.264       .  A
C28         C565   1.491       .  S
O29         Cr43   1.986       .  S
O30         Cr43   2.035       .  S
O30          C31   1.276       .  A
C31         C589   1.477       .  S
O32         Cr41   1.991       .  S
O32          C40   1.257       .  A
O33         Cr41   1.991       .  S
O33          C34   1.266       .  A
C34          O35   1.263       .  A
C34         C613   1.465       .  S
O35         Cr42   1.975       .  S
O36         Cr42   1.947       .  S
O36          C37   1.250       .  A
C37          O38   1.268       .  A
C37         C556   1.470       .  S
O38         Cr43   2.026       .  S
O39         Cr43   2.005       .  S
O39          C40   1.260       .  A
C40         C601   1.492       .  S
Cr41         O44   1.775       .  S
Cr42         O44   1.766       .  S
Cr43         O44   1.778       .  S
O45         Cr63   1.999       .  S
O45          C53   1.266       .  A
O46         Cr63   1.983       .  S
O46          C47   1.262       .  A
C47          O48   1.256       .  A
C47         C577   1.478       .  S
O48         Cr64   1.988       .  S
O49         Cr64   1.958       .  S
O49          C50   1.260       .  A
C50          O51   1.272       .  A
C50         C508   1.475       .  S
O51         Cr65   2.020       .  S
O52         Cr65   2.003       .  S
O52          C53   1.264       .  A
C53         C541   1.490       .  S
O54         Cr63   1.964       .  S
O54          C62   1.257       .  A
O55         Cr63   1.998       .  S
O55          C56   1.266       .  A
C56          O57   1.259       .  A
C56         C532   1.464       .  S
O57         Cr64   1.953       .  S
O58         Cr64   1.985       .  S
O58          C59   1.258       .  A
C59          O60   1.261       .  A
C59         C493   1.471       .  S
O60         Cr65   2.006       .  S
O61         Cr65   2.023       .  S
O61          C62   1.268       .  A
C62         C517   1.486       .  S
Cr63         O66   1.767       .  S
Cr64         O66   1.773       .  S
Cr65         O66   1.775       .  S
O67         Cr85   1.998       .  S
O67          C75   1.266       .  A
O68         Cr85   1.974       .  S
O68          C69   1.258       .  A
C69          O70   1.257       .  A
C69         C457   1.471       .  S
O70         Cr86   1.991       .  S
O71         Cr86   1.963       .  S
O71          C72   1.261       .  A
C72          O73   1.274       .  A
C72         C448   1.479       .  S
O73         Cr87   2.028       .  S
O74         Cr87   2.001       .  S
O74          C75   1.266       .  A
C75         C520   1.490       .  S
O76         Cr85   1.953       .  S
O76          C84   1.255       .  A
O77         Cr85   1.995       .  S
O77          C78   1.264       .  A
C78          O79   1.261       .  A
C78         C481   1.471       .  S
O79         Cr86   1.967       .  S
O80         Cr86   1.979       .  S
O80          C81   1.258       .  A
C81          O82   1.263       .  A
C81         C553   1.475       .  S
O82         Cr87   2.009       .  S
O83         Cr87   2.034       .  S
O83          C84   1.269       .  A
C84         C469   1.488       .  S
Cr85         O88   1.767       .  S
Cr86         O88   1.774       .  S
Cr87         O88   1.777       .  S
O89        Cr107   2.000       .  S
O89          C97   1.265       .  A
O90        Cr107   1.989       .  S
O90          C91   1.264       .  A
C91          O92   1.257       .  A
C91         C421   1.481       .  S
O92        Cr108   1.990       .  S
O93        Cr108   1.954       .  S
O93          C94   1.260       .  A
C94          O95   1.273       .  A
C94         C505   1.468       .  S
O95        Cr109   2.020       .  S
O96        Cr109   2.010       .  S
O96          C97   1.266       .  A
C97         C433   1.492       .  S
O98        Cr107   1.964       .  S
O98         C106   1.257       .  A
O99        Cr107   1.993       .  S
O99         C100   1.265       .  A
C100        O101   1.259       .  A
C100        C412   1.458       .  S
O101       Cr108   1.955       .  S
O102       Cr108   1.983       .  S
O102        C103   1.256       .  A
C103        O104   1.261       .  A
C103        C625   1.478       .  S
O104       Cr109   2.016       .  S
O105       Cr109   2.020       .  S
O105        C106   1.268       .  A
C106        C400   1.486       .  S
Cr107       O110   1.772       .  S
Cr108       O110   1.774       .  S
Cr109       O110   1.775       .  S
O111       Cr129   1.988       .  S
O111        C119   1.262       .  A
O112       Cr129   1.968       .  S
O112        C113   1.256       .  A
C113        O114   1.259       .  A
C113        C388   1.464       .  S
O114       Cr130   1.996       .  S
O115       Cr130   1.948       .  S
O115        C116   1.257       .  A
C116        O117   1.274       .  A
C116        C361   1.469       .  S
O117       Cr131   2.029       .  S
O118       Cr131   2.008       .  S
O118        C119   1.264       .  A
C119        C472   1.493       .  S
O120       Cr129   1.947       .  S
O120        C128   1.255       .  A
O121       Cr129   1.994       .  S
O121        C122   1.264       .  A
C122        O123   1.258       .  A
C122        C409   1.456   1_556  S
O123       Cr130   1.954       .  S
O124       Cr130   1.989       .  S
O124        C125   1.260       .  A
C125        O126   1.262       .  A
C125        C349   1.473       .  S
O126       Cr131   2.005       .  S
O127       Cr131   2.038       .  S
O127        C128   1.273       .  A
C128        C376   1.482       .  S
Cr129       O132   1.762       .  S
Cr130       O132   1.772       .  S
Cr131       O132   1.768       .  S
O133       Cr151   1.995       .  S
O133        C141   1.261       .  A
O134       Cr151   1.994       .  S
O134        C135   1.264       .  A
C135        O136   1.255       .  A
C135        C661   1.470       .  S
O136       Cr152   1.968       .  S
O137       Cr152   1.958       .  S
O137        C138   1.260       .  A
C138        O139   1.274       .  A
C138        C445   1.474       .  S
O139       Cr153   2.026       .  S
O140       Cr153   2.003       .  S
O140        C141   1.262       .  A
C141        C337   1.487       .  S
O142       Cr151   1.956       .  S
O142        C150   1.256       .  A
O143       Cr151   1.985       .  S
O143        C144   1.262       .  A
C144        O145   1.265       .  A
C144        C328   1.465       .  S
O145       Cr152   1.974       .  S
O146       Cr152   1.972       .  S
O146        C147   1.253       .  A
C147        O148   1.258       .  A
C147        C313   1.465       .  S
O148       Cr153   2.004       .  S
O149       Cr153   2.033       .  S
O149        C150   1.272       .  A
C150        C436   1.491       .  S
Cr151       O154   1.781       .  S
Cr152       O154   1.774       .  S
Cr153       O154   1.780       .  S
O155       Cr173   1.998       .  S
O155        C163   1.263       .  A
O156       Cr173   1.974       .  S
O156        C157   1.261       .  A
C157        O158   1.258       .  A
C157        C301   1.458       .  S
O158       Cr174   1.976       .  S
O159       Cr174   1.959       .  S
O159        C160   1.255       .  A
C160        O161   1.271       .  A
C160        C292   1.477       .  S
O161       Cr175   2.029       .  S
O162       Cr175   2.000       .  S
O162        C163   1.263       .  A
C163        C673   1.490       .  S
O164       Cr173   1.955       .  S
O164        C172   1.256       .  A
O165       Cr173   1.990       .  S
O165        C166   1.261       .  A
C166        O167   1.263       .  A
C166        C616   1.472       .  S
O167       Cr174   1.977       .  S
O168       Cr174   1.986       .  S
O168        C169   1.263       .  A
C169        O170   1.262       .  A
C169        C316   1.475       .  S
O170       Cr175   1.994       .  S
O171       Cr175   2.042       .  S
O171        C172   1.272       .  A
C172        C544   1.487       .  S
Cr173       O176   1.768       .  S
Cr174       O176   1.772       .  S
Cr175       O176   1.778       .  S
O177       Cr195   1.968       .  S
O177        C185   1.264   1_554  A
O178       Cr195   1.999       .  S
O178        C179   1.262       .  A
C179        O180   1.261       .  A
C179        C424   1.472       .  S
O180       Cr196   1.987       .  S
O181       Cr196   1.990       .  S
O181        C182   1.262   1_554  A
C182        O183   1.266       .  A
C182        C568   1.495       .  S
O183       Cr197   1.998       .  S
O184       Cr197   2.034       .  S
O184        C185   1.275       .  A
C185        C373   1.476       .  S
O186       Cr195   1.997       .  S
O186        C194   1.258       .  A
O187       Cr195   1.989       .  S
O187        C188   1.264       .  A
C188        O189   1.261       .  A
C188        C325   1.464       .  S
O189       Cr196   1.963       .  S
O190       Cr196   1.942       .  S
O190        C191   1.250       .  A
C191        O192   1.268       .  A
C191        C280   1.474       .  S
O192       Cr197   2.024   1_554  S
O193       Cr197   2.013   1_554  S
O193        C194   1.262       .  A
C194        C652   1.502       .  S
Cr195       O198   1.775       .  S
Cr196       O198   1.768       .  S
Cr197       O198   1.780   1_556  S
O199       Cr217   1.999       .  S
O199        C207   1.265       .  A
O200       Cr217   1.968       .  S
O200        C201   1.257       .  A
C201        O202   1.257       .  A
C201        C385   1.459       .  S
O202       Cr218   1.985       .  S
O203       Cr218   1.955       .  S
O203        C204   1.258       .  A
C204        O205   1.275       .  A
C204        C289   1.478       .  S
O205       Cr219   2.035       .  S
O206       Cr219   2.000       .  S
O206        C207   1.264       .  A
C207        C397   1.491       .  S
O208       Cr217   1.952       .  S
O208        C216   1.255       .  A
O209       Cr217   2.001       .  S
O209        C210   1.266       .  A
C210        O211   1.259       .  A
C210        C484   1.464   1_554  S
O211       Cr218   1.960       .  S
O212       Cr218   1.980       .  S
O212        C213   1.258       .  A
C213        O214   1.261       .  A
C213        C277   1.468       .  S
O214       Cr219   2.000       .  S
O215       Cr219   2.040       .  S
O215        C216   1.272       .  A
C216        C265   1.485       .  S
Cr217       O220   1.764       .  S
Cr218       O220   1.774       .  S
Cr219       O220   1.773       .  S
O221       Cr239   1.995       .  S
O221        C229   1.263       .  A
O222       Cr239   1.972       .  S
O222        C223   1.258       .  A
C223        O224   1.257       .  A
C223        C304   1.467       .  S
O224       Cr240   1.987       .  S
O225       Cr240   1.950       .  S
O225        C226   1.257       .  A
C226        O227   1.273       .  A
C226        C364   1.472       .  S
O227       Cr241   2.027       .  S
O228       Cr241   2.000       .  S
O228        C229   1.264       .  A
C229        C604   1.490       .  S
O230       Cr239   1.958       .  S
O230        C238   1.256       .  A
O231       Cr239   1.996       .  S
O231        C232   1.265       .  A
C232        O233   1.259       .  A
C232        C688   1.464       .  S
O233       Cr240   1.956       .  S
O234       Cr240   1.989       .  S
O234        C235   1.259       .  A
C235        O236   1.260       .  A
C235        C496   1.472       .  S
O236       Cr241   2.000       .  S
O237       Cr241   2.028       .  S
O237        C238   1.270       .  A
C238        C340   1.482       .  S
Cr239       O242   1.769       .  S
Cr240       O242   1.776       .  S
Cr241       O242   1.772       .  S
O243       Cr261   1.998   1_554  S
O243        C251   1.264       .  A
O244       Cr261   1.967       .  S
O244        C245   1.257       .  A
C245        O246   1.259       .  A
C245        C460   1.470       .  S
O246       Cr262   2.001       .  S
O247       Cr262   1.953       .  S
O247        C248   1.259   1_556  A
C248        O249   1.275       .  A
C248        C640   1.476       .  S
O249       Cr263   2.036       .  S
O250       Cr263   2.002       .  S
O250        C251   1.264       .  A
C251        C268   1.489       .  S
O252       Cr261   1.946       .  S
O252        C260   1.253       .  A
O253       Cr261   1.996       .  S
O253        C254   1.265       .  A
C254        O255   1.260       .  A
C254        C529   1.459       .  S
O255       Cr262   1.959       .  S
O256       Cr262   1.991       .  S
O256        C257   1.260       .  A
C257        O258   1.262       .  A
C257        C352   1.470       .  S
O258       Cr263   2.002   1_556  S
O259       Cr263   2.042       .  S
O259        C260   1.273   1_554  A
C260        C592   1.485       .  S
Cr261       O264   1.766       .  S
Cr262       O264   1.774       .  S
Cr263       O264   1.773   1_554  S
C265        C266   1.405       .  A
C265        C270   1.411       .  A
C266        C267   1.411   1_455  A
C266        H271   1.083       .  S
C267        C268   1.414       .  A
C267        O272   1.372       .  S
C268        C269   1.404       .  A
C269        C270   1.398   1_655  A
C269        H273   1.084       .  S
C270        O274   1.372       .  S
O272        H276   0.992       .  S
O274        H275   0.991       .  S
C277        C278   1.407       .  A
C277        C282   1.401       .  A
C278        C279   1.398       .  A
C278        H283   1.081       .  S
C279        C280   1.403       .  A
C279        O284   1.371   1_554  S
C280        C281   1.411       .  A
C281        C282   1.399       .  A
C281        H285   1.084       .  S
C282        O286   1.371       .  S
O284        H288   0.991       .  S
O286        H287   0.991       .  S
C289        C290   1.400       .  A
C289        C294   1.414       .  A
C290        C291   1.400       .  A
C290        H295   1.084       .  S
C291        C292   1.412       .  A
C291        O296   1.372       .  S
C292        C293   1.400       .  A
C293        C294   1.402       .  A
C293        H297   1.084       .  S
C294        O298   1.372       .  S
O296        H300   0.992       .  S
O298        H299   0.992       .  S
C301        C302   1.400       .  A
C301        C306   1.406   1_565  A
C302        C303   1.391   1_565  A
C302        H307   1.084       .  S
C303        C304   1.409       .  A
C303        O308   1.372       .  S
C304        C305   1.407       .  A
C305        C306   1.400       .  A
C305        H309   1.084       .  S
C306        O310   1.372   1_545  S
O308        H312   0.992   1_545  S
O310        H311   0.992   1_565  S
C313        C314   1.406       .  A
C313        C318   1.405       .  A
C314        C315   1.406       .  A
C314        H319   1.084       .  S
C315        C316   1.407       .  A
C315        O320   1.371       .  S
C316        C317   1.404       .  A
C317        C318   1.395       .  A
C317        H321   1.084       .  S
C318        O322   1.373       .  S
O320        H324   0.992       .  S
O322        H323   0.992       .  S
C325        C326   1.405       .  A
C325        C330   1.404       .  A
C326        C327   1.387       .  A
C326        H331   1.084       .  S
C327        C328   1.404       .  A
C327        O332   1.372       .  S
C328        C329   1.409       .  A
C329        C330   1.399       .  A
C329        H333   1.084       .  S
C330        O334   1.372       .  S
O332        H336   0.992       .  S
O334        H335   0.992       .  S
C337        C338   1.408       .  A
C337        C342   1.409       .  A
C338        C339   1.409   1_455  A
C338        H343   1.084       .  S
C339        C340   1.410       .  A
C339        O344   1.371       .  S
C340        C341   1.404       .  A
C341        C342   1.402   1_655  A
C341        H345   1.084       .  S
C342        O346   1.372       .  S
O344        H348   0.991       .  S
O346        H347   0.992       .  S
C349        C350   1.406       .  A
C349        C354   1.404       .  A
C350        C351   1.401       .  A
C350        H355   1.083       .  S
C351        C352   1.404       .  A
C351        O356   1.372   1_556  S
C352        C353   1.406       .  A
C353        C354   1.403       .  A
C353        H357   1.084       .  S
C354        O358   1.371       .  S
O356        H360   0.992       .  S
O358        H359   0.991       .  S
C361        C362   1.406       .  A
C361        C366   1.403       .  A
C362        C363   1.397       .  A
C362        H367   1.084       .  S
C363        C364   1.404       .  A
C363        O368   1.372       .  S
C364        C365   1.408       .  A
C365        C366   1.398       .  A
C365        H369   1.084       .  S
C366        O370   1.372       .  S
O368        H372   0.992       .  S
O370        H371   0.992       .  S
C373        C374   1.406       .  A
C373        C378   1.404       .  A
C374        C375   1.408       .  A
C374        H379   1.084       .  S
C375        C376   1.409       .  A
C375        O380   1.371       .  S
C376        C377   1.407       .  A
C377        C378   1.399       .  A
C377        H381   1.084       .  S
C378        O382   1.372       .  S
O380        H384   0.991       .  S
O382        H383   0.992       .  S
C385        C386   1.399       .  A
C385        C390   1.406       .  A
C386        C387   1.388   1_564  A
C386        H391   1.084       .  S
C387        C388   1.409       .  A
C387        O392   1.372       .  S
C388        C389   1.405       .  A
C389        C390   1.402   1_546  A
C389        H393   1.084       .  S
C390        O394   1.372       .  S
O392        H396   0.992   1_545  S
O394        H395   0.992       .  S
C397        C398   1.409       .  A
C397        C402   1.412       .  A
C398        C399   1.409   1_565  A
C398        H403   1.084       .  S
C399        C400   1.411       .  A
C399        O404   1.371       .  S
C400        C401   1.404       .  A
C401        C402   1.399   1_545  A
C401        H405   1.084       .  S
C402        O406   1.372       .  S
O404        H408   0.991       .  S
O406        H407   0.992       .  S
C409        C410   1.400       .  A
C409        C414   1.407       .  A
C410        C411   1.388       .  A
C410        H415   1.084       .  S
C411        C412   1.408       .  A
C411        O416   1.372       .  S
C412        C413   1.402       .  A
C413        C414   1.391       .  A
C413        H417   1.084       .  S
C414        O418   1.373       .  S
O416        H420   0.992       .  S
O418        H419   0.992       .  S
C421        C422   1.395       .  A
C421        C426   1.421       .  A
C422        C423   1.397       .  A
C422        H427   1.084       .  S
C423        C424   1.412       .  A
C423        O428   1.370       .  S
C424        C425   1.396       .  A
C425        C426   1.404       .  A
C425        H429   1.084       .  S
C426        O430   1.372       .  S
O428        H432   0.992       .  S
O430        H431   0.991       .  S
C433        C434   1.403       .  A
C433        C438   1.414       .  A
C434        C435   1.400       .  A
C434        H439   1.084       .  S
C435        C436   1.411       .  A
C435        O440   1.372       .  S
C436        C437   1.408       .  A
C437        C438   1.413       .  A
C437        H441   1.084       .  S
C438        O442   1.371       .  S
O440        H444   0.992       .  S
O442        H443   0.991       .  S
C445        C446   1.399       .  A
C445        C450   1.411       .  A
C446        C447   1.399       .  A
C446        H451   1.084       .  S
C447        C448   1.413       .  A
C447        O452   1.372       .  S
C448        C449   1.403       .  A
C449        C450   1.401       .  A
C449        H453   1.084       .  S
C450        O454   1.372       .  S
O452        H456   0.992       .  S
O454        H455   0.992       .  S
C457        C458   1.406       .  A
C457        C462   1.409       .  A
C458        C459   1.404   1_455  A
C458        H463   1.083       .  S
C459        C460   1.409       .  A
C459        O464   1.371       .  S
C460        C461   1.402       .  A
C461        C462   1.392   1_655  A
C461        H465   1.084       .  S
C462        O466   1.372       .  S
O464        H468   0.992       .  S
O466        H467   0.992   1_455  S
C469        C470   1.404       .  A
C469        C474   1.411       .  A
C470        C471   1.397   1_565  A
C470        H475   1.084       .  S
C471        C472   1.412       .  A
C471        O476   1.373       .  S
C472        C473   1.411       .  A
C473        C474   1.413   1_545  A
C473        H477   1.083       .  S
C474        O478   1.371       .  S
O476        H480   0.992       .  S
O478        H479   0.992       .  S
C481        C482   1.404       .  A
C481        C486   1.412       .  A
C482        C483   1.393       .  A
C482        H487   1.083       .  S
C483        C484   1.408       .  A
C483        O488   1.372       .  S
C484        C485   1.400       .  A
C485        C486   1.392       .  A
C485        H489   1.084       .  S
C486        O490   1.372       .  S
O488        H492   0.992       .  S
O490        H491   0.992       .  S
C493        C494   1.398       .  A
C493        C498   1.412       .  A
C494        C495   1.400       .  A
C494        H499   1.084       .  S
C495        C496   1.411       .  A
C495        O500   1.369       .  S
C496        C497   1.398       .  A
C497        C498   1.401       .  A
C497        H501   1.084       .  S
C498        O502   1.369       .  S
O500        H504   0.991       .  S
O502        H503   0.992       .  S
C505        C506   1.399       .  A
C505        C510   1.409       .  A
C506        C507   1.397       .  A
C506        H511   1.084       .  S
C507        C508   1.413       .  A
C507        O512   1.372       .  S
C508        C509   1.403       .  A
C509        C510   1.397       .  A
C509        H513   1.084       .  S
C510        O514   1.372       .  S
O512        H516   0.992       .  S
O514        H515   0.992       .  S
C517        C518   1.406       .  A
C517        C522   1.409       .  A
C518        C519   1.409   1_655  A
C518        H523   1.084       .  S
C519        C520   1.414       .  A
C519        O524   1.372       .  S
C520        C521   1.405       .  A
C521        C522   1.400   1_455  A
C521        H525   1.084       .  S
C522        O526   1.373       .  S
O524        H528   0.992       .  S
O526        H527   0.992       .  S
C529        C530   1.402       .  A
C529        C534   1.406       .  A
C530        C531   1.392       .  A
C530        H535   1.084       .  S
C531        C532   1.409       .  A
C531        O536   1.372       .  S
C532        C533   1.403       .  A
C533        C534   1.391       .  A
C533        H537   1.084       .  S
C534        O538   1.372       .  S
O536        H540   0.992       .  S
O538        H539   0.992       .  S
C541        C542   1.403       .  A
C541        C546   1.415       .  A
C542        C543   1.396       .  A
C542        H547   1.084       .  S
C543        C544   1.410       .  A
C543        O548   1.372       .  S
C544        C545   1.407       .  A
C545        C546   1.413       .  A
C545        H549   1.083       .  S
C546        O550   1.371       .  S
O548        H552   0.991       .  S
O550        H551   0.992       .  S
C553        C554   1.407       .  A
C553        C558   1.404       .  A
C554        C555   1.397       .  A
C554        H559   1.082       .  S
C555        C556   1.402       .  A
C555        O560   1.373       .  S
C556        C557   1.410       .  A
C557        C558   1.404       .  A
C557        H561   1.084       .  S
C558        O562   1.372       .  S
O560        H564   0.993       .  S
O562        H563   0.992       .  S
C565        C566   1.403       .  A
C565        C570   1.415       .  A
C566        C567   1.401       .  A
C566        H571   1.084       .  S
C567        C568   1.418       .  A
C567        O572   1.372   1_556  S
C568        C569   1.406       .  A
C569        C570   1.404       .  A
C569        H573   1.083       .  S
C570        O574   1.371       .  S
O572        H576   0.992       .  S
O574        H575   0.992       .  S
C577        C578   1.396       .  A
C577        C582   1.421       .  A
C578        C579   1.394       .  A
C578        H583   1.084       .  S
C579        C580   1.411       .  A
C579        O584   1.370       .  S
C580        C581   1.396       .  A
C581        C582   1.403       .  A
C581        H585   1.084       .  S
C582        O586   1.373       .  S
O584        H588   0.992       .  S
O586        H587   0.992       .  S
C589        C590   1.399       .  A
C589        C594   1.410       .  A
C590        C591   1.398       .  A
C590        H595   1.084       .  S
C591        C592   1.413       .  A
C591        O596   1.372       .  S
C592        C593   1.406       .  A
C593        C594   1.410       .  A
C593        H597   1.083       .  S
C594        O598   1.371       .  S
O596        H600   0.991       .  S
O598        H599   0.991       .  S
C601        C602   1.407       .  A
C601        C606   1.412       .  A
C602        C603   1.398   1_565  A
C602        H607   1.084       .  S
C603        C604   1.411       .  A
C603        O608   1.372       .  S
C604        C605   1.408       .  A
C605        C606   1.409   1_545  A
C605        H609   1.083       .  S
C606        O610   1.371       .  S
O608        H612   0.992       .  S
O610        H611   0.992       .  S
C613        C614   1.405       .  A
C613        C618   1.404       .  A
C614        C615   1.392       .  A
C614        H619   1.084       .  S
C615        C616   1.406       .  A
C615        O620   1.372       .  S
C616        C617   1.409       .  A
C617        C618   1.399       .  A
C617        H621   1.084       .  S
C618        O622   1.371       .  S
O620        H624   0.992       .  S
O622        H623   0.992       .  S
C625        C626   1.407       .  A
C625        C630   1.405       .  A
C626        C627   1.401       .  A
C626        H631   1.082       .  S
C627        C628   1.404       .  A
C627        O632   1.371       .  S
C628        C629   1.408       .  A
C629        C630   1.407       .  A
C629        H633   1.084       .  S
C630        O634   1.372       .  S
O632        H636   0.991       .  S
O634        H635   0.992       .  S
C637        C638   1.401       .  A
C637        C642   1.415       .  A
C638        C639   1.398       .  A
C638        H643   1.084       .  S
C639        C640   1.412       .  A
C639        O644   1.372   1_554  S
C640        C641   1.399       .  A
C641        C642   1.402       .  A
C641        H645   1.084       .  S
C642        O646   1.372       .  S
O644        H648   0.992       .  S
O646        H647   0.992       .  S
C649        C650   1.406       .  A
C649        C654   1.413       .  A
C650        C651   1.402   1_655  A
C650        H655   1.084       .  S
C651        C652   1.416       .  A
C651        O656   1.372       .  S
C652        C653   1.410       .  A
C653        C654   1.413   1_455  A
C653        H657   1.083       .  S
C654        O658   1.371       .  S
O656        H660   0.992       .  S
O658        H659   0.992       .  S
C661        C662   1.412       .  A
C661        C666   1.399   1_455  A
C662        C663   1.394       .  A
C662        H667   1.083       .  S
C663        C664   1.399   1_455  A
C663        O668   1.373       .  S
C664        C665   1.414       .  A
C665        C666   1.400       .  A
C665        H669   1.084       .  S
C666        O670   1.371       .  S
O668        H672   0.992       .  S
O670        H671   0.991       .  S
C673        C674   1.409       .  A
C673        C678   1.412       .  A
C674        C675   1.409   1_565  A
C674        H679   1.083       .  S
C675        C676   1.409       .  A
C675        O680   1.371       .  S
C676        C677   1.405       .  A
C677        C678   1.400   1_545  A
C677        H681   1.084       .  S
C678        O682   1.373       .  S
O680        H684   0.992       .  S
O682        H683   0.992       .  S
C685        C686   1.400       .  A
C685        C690   1.405       .  A
C686        C687   1.390       .  A
C686        H691   1.084       .  S
C687        C688   1.410       .  A
C687        O692   1.372       .  S
C688        C689   1.404       .  A
C689        C690   1.392       .  A
C689        H693   1.084       .  S
C690        O694   1.372       .  S
O692        H696   0.992       .  S
O694        H695   0.992       .  S
