geometry optimzed in LAMMPS
_audit_creation_date              2020-11-30 
_audit_creation_method            'lammps2cif' 
_symmetry_space_group_name_H-M    'P1' 
_symmetry_Int_Tables_number       1 
_symmetry_cell_setting            triclinic 
loop_ 
_symmetry_equiv_pos_as_xyz 
  x,y,z 
_cell_length_a                    41.695111340910465 
_cell_length_b                    41.760664158180504 
_cell_length_c                    47.607987587398654 
_cell_angle_alpha                 89.43589008569238 
_cell_angle_beta                  90.46657894875098 
_cell_angle_gamma                 120.31137365686251 
loop_ 
_atom_site_label 
_atom_site_type_symbol 
_atom_site_fract_x 
_atom_site_fract_y 
_atom_site_fract_z 
_atom_site_charge 
Zr1        Zr  0.41483404  0.18386226  0.27224063     2.17510
O2          O  0.46551006  0.24565159  0.28369652    -0.52460
O3          O  0.37112204  0.20549470  0.26689460    -0.75660
O4          O  0.42841654  0.21858555  0.22720364    -0.82440
O5          O  0.38595010  0.13728489  0.34519149    -0.84190
O6          O  0.46417994  0.20086128  0.20593878    -0.79810
O7          O  0.42097341  0.19373283  0.32405380    -0.91450
O8          O  0.33012801  0.16918417  0.23343952    -0.77410
O9          O  0.39115215  0.15546506  0.22798749    -0.86900
O10         O  0.35249133  0.13476080  0.28136633    -0.86590
O11         O  0.45660161  0.16465917  0.25417181    -0.73350
O12         O  0.41778931  0.13886014  0.30158740    -0.85480
Zr13       Zr  0.37507344  0.04524302  0.24983420     2.26420
Zr14       Zr  0.43069642  0.13436750  0.20995232     2.06270
Zr15       Zr  0.35613930  0.08914283  0.31029988     2.10050
Zr16       Zr  0.32917305  0.10958282  0.23607819     1.78760
O17         O  0.36017964  0.05941044  0.35337848    -0.94290
O18         O  0.31773493  0.11826909  0.18708940    -0.42100
O19         O  0.33248914  0.06407896  0.26528894    -0.78730
O20         O  0.36784598  0.08652142  0.21831646    -0.97420
O21         O  0.43683518  0.09334506  0.24128472    -0.90720
O22         O  0.39887245  0.07092667  0.29451315    -0.93560
C23         C  0.34586681  0.19883321  0.24841080     1.00190
C24         C  0.40860771  0.17244880  0.34614579     1.13120
C25         C  0.44590803  0.21764465  0.20531293     1.03900
O26         O  0.41429455  0.14471200  0.16291633    -0.95720
O27         O  0.41920602  0.08351661  0.17858983    -0.91460
O28         O  0.38708767  0.03062179  0.20447145    -0.84610
C29         C  0.40170741  0.04806375  0.18169239     1.10540
O30         O  0.50349935  0.17521157  0.31302881    -0.97690
Zr31       Zr  0.46028951  0.12138422  0.28547845     1.88940
O32         O  0.41846736  0.02329706  0.25833427    -0.74340
O33         O  0.49227309  0.14923979  0.19452142    -0.53600
O34         O  0.52037825  0.14910855  0.26214835    -0.98280
O35         O  0.47380307  0.10603112  0.33198699    -0.55500
O36         O  0.47039168  0.07030596  0.27815150    -0.74860
C37         C  0.45175445  0.03762376  0.26800636     0.97490
O38         O  0.32475852  0.98955591  0.22792482    -0.63680
O39         O  0.30262915  0.08989357  0.32972254    -0.58480
O40         O  0.33980152  0.99924406  0.28497940    -0.95160
O41         O  0.30842947  0.02252561  0.30674435    -0.93590
O42         O  0.27294188  0.09482788  0.26160232    -0.93940
O43         O  0.27549656  0.05595651  0.21554110    -0.92730
C44         C  0.31095209  0.99491724  0.29759450     1.16330
H45         H  0.33758718  0.14341276  0.29035646     0.32270
H46         H  0.35668039  0.07384996  0.20097099     0.43130
H47         H  0.39938856  0.05284734  0.30708247     0.36650
H48         H  0.48121215  0.18594075  0.25190157     0.33130
H49         H  0.29644914  0.12254985  0.18757741     0.24920
H50         H  0.49492642  0.16051141  0.17566250     0.30860
H51         H  0.53386735  0.13832344  0.27186414     0.36770
H52         H  0.26187829  0.10724031  0.25075423     0.31230
H53         H  0.29213035  0.06936641  0.34363834     0.30100
H54         H  0.34558681  0.06415658  0.36730789     0.31780
H55         H  0.49709490  0.10547976  0.32962161     0.30750
H56         H  0.28174203  0.03602619  0.21637551     0.34750
H57         H  0.30348073  0.97909133  0.24098008     0.27480
H58         H  0.45630813  0.26245339  0.27795252     0.31720
H59         H  0.52699308  0.17473235  0.31373692     0.34570
H60         H  0.31318811  0.11269163  0.34116199     0.27180
H61         H  0.31619828  0.99920682  0.21229376     0.40050
H62         H  0.38695266  0.12872268  0.16186542     0.30100
H63         H  0.33916407  0.14264737  0.18172001     0.37720
H64         H  0.45459640  0.07980306  0.33531069     0.29570
H65         H  0.50970839  0.17010364  0.20656524     0.29630
H66         H  0.48516022  0.25055459  0.26991508     0.29900
Zr67       Zr  0.56801381  0.80936218  0.25705527     2.17510
O68         O  0.51585814  0.74965765  0.24282139    -0.52460
O69         O  0.61082822  0.78719977  0.26602148    -0.75660
O70         O  0.57081444  0.79948792  0.20600668    -0.82440
O71         O  0.51420806  0.79122901  0.31802130    -0.84190
O72         O  0.60425197  0.85614378  0.18469050    -0.79810
O73         O  0.54391854  0.76629958  0.29770106    -0.91450
O74         O  0.65755229  0.82934392  0.29369233    -0.77410
O75         O  0.62879753  0.86053347  0.24694353    -0.86900
O76         O  0.59476504  0.83736945  0.30144400    -0.86590
O77         O  0.55975403  0.85246972  0.22819961    -0.73350
O78         O  0.52705435  0.82752262  0.27791275    -0.85480
Zr79       Zr  0.60397884  0.94692974  0.28061756     2.26420
Zr80       Zr  0.62104677  0.90457450  0.21881251     2.06270
Zr81       Zr  0.55520213  0.85707688  0.32167344     2.10050
Zr82       Zr  0.65471864  0.88658040  0.29149833     1.78760
O83         O  0.49912250  0.83745848  0.34909963    -0.94290
O84         O  0.71027204  0.90191425  0.26470908    -0.42100
O85         O  0.61558750  0.90779497  0.31122543    -0.78730
O86         O  0.64732920  0.93010624  0.26336376    -0.97420
O87         O  0.57779274  0.92080136  0.23669389    -0.90720
O88         O  0.54436166  0.89649770  0.29184197    -0.93560
C89         C  0.63886521  0.79710187  0.28245015     1.00190
C90         C  0.52796079  0.77020815  0.31936583     1.13120
C91         C  0.58427829  0.82062112  0.18400985     1.03900
O92         O  0.67751445  0.91489581  0.19590641    -0.95720
O93         O  0.66506592  0.97285844  0.21808299    -0.91460
O94         O  0.63829732  0.99533030  0.24686590    -0.84610
C95         C  0.66412436  0.00003771  0.23008021     1.10540
O96         O  0.47130987  0.81345336  0.22399416    -0.97690
Zr97       Zr  0.51825388  0.86889038  0.24812077     1.88940
O98         O  0.56061910  0.96855144  0.27104096    -0.74340
O99         O  0.60269884  0.92605215  0.17731106    -0.53600
O100        O  0.50434241  0.88317914  0.20142870    -0.98280
O101        O  0.45935632  0.84093538  0.27325614    -0.55500
O102        O  0.50752320  0.91984637  0.25420247    -0.74860
C103        C  0.52674664  0.95339651  0.26256777     0.97490
O104        O  0.65430679  0.00234475  0.30261984    -0.63680
O105        O  0.58456749  0.84998006  0.36403293    -0.58480
O106        O  0.58707047  0.95971849  0.32459650    -0.95160
O107        O  0.56351158  0.90739791  0.35160227    -0.93590
O108        O  0.66790589  0.88075214  0.34061804    -0.93940
O109        O  0.70913090  0.94143011  0.30999526    -0.92730
C110        C  0.57580233  0.94207957  0.34771125     1.16330
H111        H  0.59787423  0.82102315  0.31416419     0.32270
H112        H  0.67189144  0.95166732  0.26223259     0.43130
H113        H  0.52892221  0.90412786  0.30128668     0.36650
H114        H  0.54695939  0.84123684  0.21094046     0.33130
H115        H  0.72572089  0.89667187  0.27773686     0.24920
H116        H  0.61868293  0.92588529  0.16211148     0.30860
H117        H  0.48211892  0.88562251  0.20393257     0.36770
H118        H  0.68720981  0.87360262  0.34012715     0.31230
H119        H  0.56518010  0.84058318  0.37869292     0.30100
H120        H  0.50669290  0.83794853  0.36892288     0.31780
H121        H  0.44718740  0.85485121  0.26683065     0.30750
H122        H  0.69988759  0.95821048  0.31527969     0.34750
H123        H  0.65884542  0.99355647  0.32077903     0.27480
H124        H  0.52719332  0.73661471  0.23360264     0.31720
H125        H  0.44988521  0.81716101  0.22090573     0.34570
H126        H  0.58935316  0.82946864  0.36065890     0.27180
H127        H  0.67681388  0.00876638  0.29157945     0.40050
H128        H  0.67966909  0.89305688  0.20115636     0.30100
H129        H  0.70186602  0.88230609  0.25032048     0.37720
H130        H  0.46616642  0.84835201  0.29307989     0.29570
H131        H  0.57750961  0.90543585  0.17266008     0.29630
H132        H  0.50344139  0.75549253  0.22744839     0.29900
Zr133      Zr  0.41145977  0.23156411  0.02033120     2.17510
O134        O  0.46345322  0.22390415  0.03469056    -0.52460
O135        O  0.36807023  0.16613431  0.01380835    -0.75660
O136        O  0.41023383  0.22063786  0.07179871    -0.82440
O137        O  0.46458638  0.26735472  0.45908187    -0.84190
O138        O  0.37651861  0.24324162  0.09253380    -0.79810
O139        O  0.43518014  0.21246993  0.48007937    -0.91450
O140        O  0.32259699  0.16088058  0.48439339    -0.77410
O141        O  0.35086155  0.22162280  0.03060385    -0.86900
O142        O  0.38403690  0.23180045  0.47577326    -0.86590
O143        O  0.42016288  0.28341381  0.04799242    -0.73350
O144        O  0.45198479  0.29038434  0.49786696    -0.85480
Zr145      Zr  0.37519208  0.33251799  0.49453958     2.26420
Zr146      Zr  0.35902949  0.27394896  0.05751676     2.06270
Zr147      Zr  0.42294803  0.29106445  0.45412311     2.10050
Zr148      Zr  0.32422999  0.22057185  0.48597467     1.78760
O149        O  0.47843303  0.32781095  0.42589753    -0.94290
O150        O  0.26954334  0.17961381  0.01369512    -0.42100
O151        O  0.36284245  0.28107615  0.46507032    -0.78730
O152        O  0.33207496  0.27224662  0.01293176    -0.97420
O153        O  0.40229338  0.33336589  0.03838171    -0.90720
O154        O  0.43448456  0.34188138  0.48291745    -0.93560
C155        C  0.34097999  0.14768215  0.99671325     1.00190
C156        C  0.45126522  0.23253441  0.45826304     1.13120
C157        C  0.39696337  0.22836254  0.09359412     1.03900
O158        O  0.30277746  0.22743439  0.08101024    -0.95720
O159        O  0.31525708  0.29827463  0.05770648    -0.91460
O160        O  0.34184018  0.34734573  0.02797522    -0.84610
C161        C  0.31625696  0.32642654  0.04520724     1.10540
O162        O  0.50844334  0.33223752  0.05068596    -0.97690
Zr163      Zr  0.46148625  0.34096597  0.02663930     1.88940
O164        O  0.41936992  0.39814620  0.50274027    -0.74340
O165        O  0.37769710  0.31443239  0.09819912    -0.53600
O166        O  0.47713852  0.37016537  0.07264762    -0.98280
O167        O  0.51977206  0.37192548  0.50066217    -0.55500
O168        O  0.47243571  0.40255799  0.01970601    -0.74860
C169        C  0.45335632  0.41691873  0.51108745     0.97490
O170        O  0.32445344  0.33713495  0.47264429    -0.63680
O171        O  0.39356257  0.25318020  0.41263210    -0.58480
O172        O  0.38989759  0.36036951  0.44957667    -0.95160
O173        O  0.41388974  0.33240914  0.42304759    -0.93590
O174        O  0.30995742  0.20141899  0.43713962    -0.93940
O175        O  0.26888147  0.21953511  0.46795754    -0.92730
C176        C  0.40112085  0.35430486  0.42657187     1.16330
H177        H  0.38090435  0.21222679  0.46348195     0.32270
H178        H  0.30757395  0.26916609  0.01415007     0.43130
H179        H  0.44968766  0.36494316  0.47296471     0.36650
H180        H  0.43337171  0.28563144  0.06522617     0.33130
H181        H  0.25396107  0.15869372  0.00101761     0.24920
H182        H  0.36217471  0.29824323  0.11375198     0.30860
H183        H  0.49976606  0.39460497  0.06955778     0.36770
H184        H  0.29141765  0.17458168  0.43803319     0.31230
H185        H  0.41277476  0.26330085  0.39783303     0.30100
H186        H  0.47052062  0.32039712  0.40622209     0.31780
H187        H  0.53262554  0.39793057  0.50721541     0.30750
H188        H  0.27760303  0.24553422  0.46231278     0.34750
H189        H  0.31868277  0.32250334  0.45520435     0.27480
H190        H  0.45209274  0.19976699  0.04471896     0.31720
H191        H  0.53029163  0.35739060  0.05303911     0.34570
H192        H  0.38939703  0.22813361  0.41671408     0.27180
H193        H  0.30237756  0.32201075  0.48450888     0.40050
H194        H  0.30096328  0.20345567  0.07659091     0.30100
H195        H  0.27851532  0.16871477  0.02811685     0.37720
H196        H  0.51261013  0.37327212  0.48100138     0.29570
H197        H  0.40311562  0.31965638  0.10270033     0.29630
H198        H  0.47659038  0.24273305  0.04943168     0.29900
Zr199      Zr  0.56912118  0.76117633  0.00551527     2.17510
O200        O  0.51867544  0.77233526  0.99365295    -0.52460
O201        O  0.61166844  0.82670867  0.01273530    -0.75660
O202        O  0.55502050  0.78072112  0.05053139    -0.82440
O203        O  0.59703132  0.74394601  0.43266273    -0.84190
O204        O  0.51875215  0.72628418  0.07122238    -0.79810
O205        O  0.56277458  0.76563968  0.45364043    -0.91450
O206        O  0.65262073  0.82892928  0.04552482    -0.77410
O207        O  0.59236955  0.75478784  0.04975390    -0.86900
O208        O  0.63144500  0.77468096  0.99662093    -0.86590
O209        O  0.52662722  0.69935209  0.02305263    -0.73350
O210        O  0.56629014  0.71402621  0.47608273    -0.85480
Zr211      Zr  0.60698505  0.66041609  0.02787641     2.26420
Zr212      Zr  0.55200033  0.69347112  0.06730567     2.06270
Zr213      Zr  0.62762917  0.72595453  0.46756469     2.10050
Zr214      Zr  0.65420765  0.77073581  0.04185421     1.78760
O215        O  0.62506601  0.69545452  0.42357518    -0.94290
O216        O  0.66920595  0.79166601  0.09031891    -0.42100
O217        O  0.65034234  0.72243716  0.01261258    -0.78730
O218        O  0.61471527  0.70813017  0.05985024    -0.97420
O219        O  0.54552339  0.64729586  0.03562130    -0.90720
O220        O  0.58433219  0.66431646  0.98295228    -0.93560
C221        C  0.63603274  0.84348618  0.03212828     1.00190
C222        C  0.57453648  0.75650230  0.43161389     1.13120
C223        C  0.53728365  0.76140865  0.07223836     1.03900
O224        O  0.57363072  0.71971122  0.11377773    -0.95720
O225        O  0.55420451  0.64529472  0.09522469    -0.91460
O226        O  0.58814872  0.62632001  0.07097079    -0.84610
C227        C  0.56938586  0.62529313  0.09236411     1.10540
O228        O  0.48148511  0.66585188  0.96292826    -0.97690
Zr229      Zr  0.52298498  0.65343406  0.99135370     1.88940
O230        O  0.56392472  0.59551112  0.01680577    -0.74340
O231        O  0.49073769  0.65078688  0.08635419    -0.53600
O232        O  0.46246190  0.62080965  0.01410341    -0.98280
O233        O  0.50986697  0.62548300  0.44484288    -0.55500
O234        O  0.51169962  0.59169030  0.99854490    -0.74860
C235        C  0.53032561  0.57703426  0.00761103     0.97490
O236        O  0.65665192  0.65487855  0.05074681    -0.63680
O237        O  0.68157720  0.78179259  0.44946687    -0.58480
O238        O  0.64435460  0.65126259  0.99450743    -0.95160
O239        O  0.67382693  0.70528451  0.47033084    -0.93590
O240        O  0.70966684  0.81310051  0.01546149    -0.93940
O241        O  0.70782061  0.76945090  0.06115229    -0.92730
C242        C  0.67179985  0.67536488  0.48007596     1.16330
H243        H  0.64643326  0.79872787  0.48792709     0.32270
H244        H  0.62507204  0.70545496  0.07734976     0.43130
H245        H  0.58389008  0.64610585  0.47031818     0.36650
H246        H  0.50206901  0.69596483  0.02519416     0.33130
H247        H  0.69263292  0.81584084  0.08912184     0.24920
H248        H  0.48908880  0.66287088  0.10363864     0.30860
H249        H  0.44870436  0.59685386  0.00414062     0.36770
H250        H  0.72028279  0.83688791  0.02565549     0.31230
H251        H  0.69525146  0.77259335  0.43839969     0.30100
H252        H  0.64181861  0.71581831  0.41076305     0.31780
H253        H  0.48595402  0.60193765  0.44692389     0.30750
H254        H  0.69966300  0.74275096  0.06269364     0.34750
H255        H  0.67984533  0.67378189  0.04153256     0.27480
H256        H  0.52763656  0.79808146  0.99981453     0.31720
H257        H  0.45744018  0.64223698  0.96244758     0.34570
H258        H  0.67145137  0.79182217  0.43524812     0.27180
H259        H  0.65864598  0.66469658  0.06992872     0.40050
H260        H  0.59383508  0.74543451  0.11023110     0.30100
H261        H  0.65037567  0.79823968  0.09570765     0.37720
H262        H  0.52838993  0.61764032  0.44204259     0.29570
H263        H  0.47299520  0.65205235  0.07308569     0.29630
H264        H  0.49864924  0.75667490  0.00704131     0.29900
Zr265      Zr  0.22385279  0.80997414  0.00402225     2.17510
O266        O  0.21126272  0.74786638  0.99301693    -0.52460
O267        O  0.15861028  0.78825092  0.01129110    -0.75660
O268        O  0.20303679  0.77619330  0.04947144    -0.82440
O269        O  0.24152673  0.85534656  0.43076524    -0.84190
O270        O  0.25695209  0.79311714  0.07064014    -0.79810
O271        O  0.21787189  0.79895834  0.45243986    -0.91450
O272        O  0.15792539  0.82737944  0.04377471    -0.77410
O273        O  0.23053423  0.83956117  0.04780589    -0.86900
O274        O  0.21251900  0.85999279  0.99421356    -0.86590
O275        O  0.28521524  0.82818358  0.02183886    -0.73350
O276        O  0.27235943  0.85378934  0.47433922    -0.85480
Zr277      Zr  0.32790215  0.94820172  0.02532506     2.26420
Zr278      Zr  0.29140947  0.85938906  0.06566695     2.06270
Zr279      Zr  0.26250515  0.90446639  0.46506262     2.10050
Zr280      Zr  0.21675077  0.88670494  0.03907318     1.78760
O281        O  0.29614044  0.93366958  0.42199511    -0.94290
O282        O  0.19855981  0.88118332  0.08818801    -0.42100
O283        O  0.26625535  0.93064346  0.00981725    -0.78730
O284        O  0.27888069  0.90860028  0.05702001    -0.97420
O285        O  0.33896951  0.89873691  0.03418198    -0.90720
O286        O  0.32366879  0.92168548  0.98071233    -0.93560
C287        C  0.14259240  0.79616340  0.03076551     1.00190
C288        C  0.22740515  0.81996243  0.43017577     1.13120
C289        C  0.22179394  0.77712797  0.07141429     1.03900
O290        O  0.26513079  0.85058150  0.11251162    -0.95720
O291        O  0.33208585  0.91140544  0.09553248    -0.91460
O292        O  0.36194530  0.96343071  0.06846324    -0.84610
C293        C  0.35519560  0.94614702  0.09183626     1.10540
O294        O  0.31901339  0.81564993  0.96285848    -0.97690
Zr295      Zr  0.33255672  0.87022593  0.99015750     1.88940
O296        O  0.39252996  0.96868043  0.01564477    -0.74340
O297        O  0.33705974  0.84391526  0.08298911    -0.53600
O298        O  0.36362486  0.84105017  0.01351644    -0.98280
O299        O  0.36075268  0.88476665  0.44364481    -0.55500
O300        O  0.39531227  0.92008262  0.99759287    -0.74860
C301        C  0.41053414  0.95323810  0.00694360     0.97490
O302        O  0.33485403  0.00396080  0.04738518    -0.63680
O303        O  0.20917162  0.90517955  0.44449038    -0.58480
O304        O  0.33816649  0.99390903  0.99015200    -0.95160
O305        O  0.28240788  0.97108925  0.46956195    -0.93590
O306        O  0.17471877  0.90041566  0.01277440    -0.93940
O307        O  0.21825068  0.94158160  0.05759663    -0.92730
C308        C  0.31319699  0.99851404  0.47868043     1.16330
H309        H  0.18877817  0.85140097  0.48539420     0.32270
H310        H  0.28140740  0.92180399  0.07419484     0.43130
H311        H  0.34255951  0.93929264  0.46806540     0.36650
H312        H  0.28774116  0.80658256  0.02443493     0.33130
H313        H  0.17283339  0.87661753  0.08767674     0.24920
H314        H  0.32715900  0.83165433  0.10135335     0.30860
H315        H  0.38765514  0.85099866  0.00365665     0.36770
H316        H  0.15096801  0.88727264  0.02316151     0.31230
H317        H  0.21931155  0.92159546  0.42782569     0.30100
H318        H  0.30984059  0.92065591  0.41771113     0.31780
H319        H  0.38396364  0.88394964  0.44588550     0.30750
H320        H  0.24502656  0.96020518  0.05920581     0.34750
H321        H  0.31636375  0.00863573  0.03793449     0.27480
H322        H  0.18514623  0.73132119  0.99879835     0.31720
H323        H  0.34264239  0.81548431  0.96192178     0.34570
H324        H  0.19338714  0.88007710  0.43660801     0.27180
H325        H  0.32480048  0.99618503  0.06659814     0.40050
H326        H  0.25773673  0.86959169  0.11410097     0.30100
H327        H  0.19582917  0.85728997  0.09456238     0.37720
H328        H  0.36929683  0.91134056  0.44050866     0.29570
H329        H  0.33425882  0.82373365  0.07061756     0.29630
H330        H  0.22607781  0.74292942  0.00690421     0.29900
Zr331      Zr  0.75611066  0.18365533  0.02129248     2.17510
O332        O  0.76285969  0.24274177  0.03535777    -0.52460
O333        O  0.82138999  0.20703567  0.01373169    -0.75660
O334        O  0.76800177  0.19304215  0.07237908    -0.82440
O335        O  0.71899681  0.20139517  0.46032890    -0.84190
O336        O  0.74580257  0.13640739  0.09345660    -0.79810
O337        O  0.77420037  0.22722845  0.48079519    -0.91450
O338        O  0.82673214  0.16725008  0.48463544    -0.77410
O339        O  0.76672387  0.13346823  0.03114294    -0.86900
O340        O  0.75502257  0.15685811  0.47660298    -0.86590
O341        O  0.70455643  0.13935734  0.04968595    -0.73350
O342        O  0.69618587  0.16438652  0.50000487    -0.85480
Zr343      Zr  0.65515524  0.04561220  0.49618677     2.26420
Zr344      Zr  0.71499731  0.08822809  0.05873014     2.06270
Zr345      Zr  0.69509154  0.13592471  0.45605079     2.10050
Zr346      Zr  0.76692221  0.10862044  0.48635771     1.78760
O347        O  0.65824800  0.15499974  0.42816011    -0.94290
O348        O  0.80822592  0.09461987  0.01329267    -0.42100
O349        O  0.70591189  0.08610806  0.46612045    -0.78730
O350        O  0.71589808  0.06385366  0.01396876    -0.97420
O351        O  0.65465329  0.07026590  0.04052090    -0.90720
O352        O  0.64502649  0.09535511  0.48545296    -0.93560
C353        C  0.83990416  0.19881092  0.99678042     1.00190
C354        C  0.75387241  0.22303592  0.45907665     1.13120
C355        C  0.76057685  0.17182574  0.09428194     1.03900
O356        O  0.76284433  0.07940501  0.08089587    -0.95720
O357        O  0.69103900  0.02009431  0.05953952    -0.91460
O358        O  0.64336808  0.99624135  0.02829021    -0.84610
C359        C  0.66374498  0.99246354  0.04670939     1.10540
O360        O  0.65396870  0.17703313  0.05239598    -0.97690
Zr361      Zr  0.64601176  0.12146665  0.02946594     1.88940
O362        O  0.58969591  0.02164578  0.50610480    -0.74340
O363        O  0.67592284  0.06529608  0.10027689    -0.53600
O364        O  0.61940737  0.10778336  0.07659190    -0.98280
O365        O  0.61226045  0.14636377  0.50387813    -0.55500
O366        O  0.58452808  0.06907722  0.02388568    -0.74860
C367        C  0.57067408  0.03591932  0.51500595     0.97490
O368        O  0.65125178  0.99238323  0.47212024    -0.63680
O369        O  0.73154384  0.14388605  0.41393286    -0.58480
O370        O  0.62234377  0.03293495  0.45305313    -0.95160
O371        O  0.65243516  0.08527840  0.42624392    -0.93590
O372        O  0.78585385  0.11527327  0.43738237    -0.93940
O373        O  0.76754879  0.05478516  0.46783611    -0.92730
C374        C  0.62898643  0.05074786  0.42999115     1.16330
H375        H  0.77438583  0.17368896  0.46404642     0.32270
H376        H  0.71927794  0.04265956  0.01516546     0.43130
H377        H  0.62163006  0.08751086  0.47604781     0.36650
H378        H  0.70251047  0.15003076  0.06692373     0.33130
H379        H  0.82905852  0.10060632  0.00039192     0.24920
H380        H  0.69275751  0.06624716  0.11545349     0.30860
H381        H  0.59417081  0.10415218  0.07419466     0.36770
H382        H  0.81263371  0.12338055  0.43808299     0.31230
H383        H  0.72115971  0.15289079  0.39915497     0.30100
H384        H  0.66459201  0.15375861  0.40836450     0.31780
H385        H  0.59413548  0.12579777  0.49192726     0.30750
H386        H  0.74152254  0.03765971  0.46205004     0.34750
H387        H  0.66289853  0.00209375  0.45358059     0.27480
H388        H  0.78730496  0.25608959  0.04491950     0.31720
H389        H  0.62859960  0.17262186  0.05553894     0.34570
H390        H  0.75689010  0.16477934  0.41742292     0.27180
H391        H  0.66916096  0.98721577  0.48200332     0.40050
H392        H  0.78642585  0.10270471  0.07708193     0.30100
H393        H  0.81927162  0.11410096  0.02782099     0.37720
H394        H  0.63049079  0.16458824  0.49044507     0.29570
H395        H  0.67049698  0.08512717  0.10497169     0.29630
H396        H  0.74439065  0.23653685  0.05045335     0.29900
Zr397      Zr  0.80283552  0.23218873  0.27284128     2.17510
O398        O  0.74135206  0.22187237  0.28366461    -0.52460
O399        O  0.77869641  0.16644584  0.26613785    -0.75660
O400        O  0.76910090  0.21212085  0.22745779    -0.82440
O401        O  0.84819660  0.25003428  0.34640425    -0.84190
O402        O  0.78872376  0.26622879  0.20568782    -0.79810
O403        O  0.79203491  0.22825962  0.32472814    -0.91450
O404        O  0.81778455  0.16365877  0.23460989    -0.77410
O405        O  0.83281950  0.23761915  0.22925138    -0.86900
O406        O  0.85137356  0.21881837  0.28342123    -0.86590
O407        O  0.82321831  0.29347523  0.25376242    -0.73350
O408        O  0.84750288  0.27995321  0.30220453    -0.85480
Zr409      Zr  0.94262568  0.33270942  0.25208821     2.26420
Zr410      Zr  0.85520874  0.29856699  0.21023586     2.06270
Zr411      Zr  0.89690514  0.26823626  0.31224354     2.10050
Zr412      Zr  0.87823645  0.22161912  0.23885828     1.78760
O413        O  0.92582313  0.30068951  0.35567492    -0.94290
O414        O  0.87199812  0.20284958  0.18988338    -0.42100
O415        O  0.92340208  0.27078507  0.26783703    -0.78730
O416        O  0.90257184  0.28389122  0.22055949    -0.97420
O417        O  0.89470203  0.34571388  0.24194452    -0.90720
O418        O  0.91543028  0.32964623  0.29614403    -0.93560
C419        C  0.78628686  0.14936139  0.24733860     1.00190
C420        C  0.81304429  0.23745211  0.34701588     1.13120
C421        C  0.77122407  0.23104103  0.20528898     1.03900
O422        O  0.84599259  0.26964170  0.16444871    -0.95720
O423        O  0.90782080  0.33925080  0.17966452    -0.91460
O424        O  0.95949823  0.35928649  0.20671415    -0.84610
C425        C  0.94328593  0.35721322  0.18346006     1.10540
O426        O  0.80970750  0.32824967  0.31104737    -0.97690
Zr427      Zr  0.86519875  0.34011278  0.28555450     1.88940
O428        O  0.96320116  0.39833011  0.25846289    -0.74340
O429        O  0.84104460  0.34447717  0.19140514    -0.53600
O430        O  0.83918205  0.37319847  0.26072471    -0.98280
O431        O  0.87806122  0.36748293  0.33224950    -0.55500
O432        O  0.91639431  0.40192904  0.27926753    -0.74860
C433        C  0.94873736  0.41672680  0.26839145     0.97490
O434        O  0.99907579  0.34004446  0.23066180    -0.63680
O435        O  0.89494498  0.21327293  0.33209467    -0.58480
O436        O  0.98663819  0.34386903  0.28893491    -0.95160
O437        O  0.96372052  0.28792741  0.30927111    -0.93590
O438        O  0.89047676  0.17913381  0.26593356    -0.93940
O439        O  0.93168683  0.22013594  0.22025761    -0.92730
C440        C  0.99131471  0.31896009  0.30070394     1.16330
H441        H  0.84193208  0.19492020  0.29250799     0.32270
H442        H  0.91597203  0.28567652  0.20360734     0.43130
H443        H  0.93291808  0.34818246  0.30891361     0.36650
H444        H  0.80214544  0.29686417  0.25090715     0.33130
H445        H  0.86627185  0.17677518  0.19058863     0.24920
H446        H  0.82804143  0.33381172  0.17343158     0.30860
H447        H  0.84906526  0.39701611  0.27077567     0.36770
H448        H  0.87662783  0.15520917  0.25594220     0.31230
H449        H  0.91712371  0.22307435  0.34440852     0.30100
H450        H  0.92155742  0.28085387  0.36928434     0.31780
H451        H  0.87933726  0.39165087  0.32959909     0.30750
H452        H  0.95210074  0.24629855  0.22068220     0.34750
H453        H  0.01336599  0.33570975  0.24531349     0.27480
H454        H  0.72410256  0.19598235  0.27785047     0.31720
H455        H  0.81054221  0.35234732  0.31176089     0.34570
H456        H  0.87366929  0.20260003  0.34521220     0.27180
H457        H  0.99007691  0.31821475  0.21828395     0.40050
H458        H  0.86678994  0.26480522  0.16251968     0.30100
H459        H  0.84855652  0.20118225  0.18345530     0.37720
H460        H  0.90393509  0.37409783  0.33657354     0.29570
H461        H  0.82153464  0.34312030  0.20391266     0.29630
H462        H  0.73724297  0.23723864  0.26975490     0.29900
Zr463      Zr  0.17470162  0.76159815  0.25621908     2.17510
O464        O  0.23410435  0.76865791  0.24239973    -0.52460
O465        O  0.19811474  0.82677861  0.26466516    -0.75660
O466        O  0.18529680  0.77508749  0.20508147    -0.82440
O467        O  0.19097264  0.72405935  0.31696169    -0.84190
O468        O  0.12899694  0.75429794  0.18373478    -0.79810
O469        O  0.21751152  0.77943567  0.29675847    -0.91450
O470        O  0.15710342  0.83125175  0.29317835    -0.77410
O471        O  0.12470196  0.77279339  0.24640945    -0.86900
O472        O  0.14630124  0.75885388  0.30066572    -0.86590
O473        O  0.13119607  0.71158889  0.22683862    -0.73350
O474        O  0.15488561  0.70139790  0.27688140    -0.85480
Zr475      Zr  0.03578198  0.66020591  0.27949524     2.26420
Zr476      Zr  0.08018676  0.72218538  0.21787287     2.06270
Zr477      Zr  0.12490595  0.69850944  0.32071919     2.10050
Zr478      Zr  0.09846629  0.77133448  0.29100893     1.78760
O479        O  0.14767392  0.66643078  0.35060975    -0.94290
O480        O  0.08417799  0.81277935  0.26442468    -0.42100
O481        O  0.07524322  0.70981609  0.31075754    -0.78730
O482        O  0.05435819  0.72143732  0.26246539    -0.97420
O483        O  0.06212645  0.66160900  0.23542287    -0.90720
O484        O  0.08554091  0.64989327  0.28989476    -0.93560
C485        C  0.18918196  0.84487013  0.28148026     1.00190
C486        C  0.21231590  0.75896174  0.31855744     1.13120
C487        C  0.16441114  0.76860038  0.18306085     1.03900
O488        O  0.07147803  0.77060112  0.19671902    -0.95720
O489        O  0.01219230  0.69774076  0.21612831    -0.91460
O490        O  0.98804773  0.64820398  0.24564366    -0.84610
C491        C  0.98444105  0.66942726  0.22794394     1.10540
O492        O  0.16971687  0.66204945  0.22369790    -0.97690
Zr493      Zr  0.11330700  0.65279145  0.24625654     1.88940
O494        O  0.01360820  0.59493862  0.26976339    -0.74340
O495        O  0.05848182  0.68481479  0.17550774    -0.53600
O496        O  0.10089960  0.62824183  0.19869487    -0.98280
O497        O  0.13727619  0.61779570  0.27110599    -0.55500
O498        O  0.06095129  0.59112940  0.25009347    -0.74860
C499        C  0.02795705  0.57647815  0.25974864     0.97490
O500        O  0.98051486  0.65479408  0.30144999    -0.63680
O501        O  0.12844056  0.73347623  0.36262550    -0.58480
O502        O  0.02148497  0.62752164  0.32290026    -0.95160
O503        O  0.07523692  0.64702728  0.34708413    -0.93590
O504        O  0.10503403  0.79004935  0.33998711    -0.93940
O505        O  0.04425426  0.77128079  0.30972635    -0.92730
C506        C  0.03986678  0.62633041  0.34401346     1.16330
H507        H  0.16269901  0.77787411  0.31352343     0.32270
H508        H  0.03309556  0.72474289  0.26109623     0.43130
H509        H  0.07756979  0.62601575  0.29848919     0.36650
H510        H  0.14221930  0.71007913  0.20956967     0.33130
H511        H  0.08986009  0.83329231  0.27750007     0.24920
H512        H  0.05960420  0.70213710  0.16067371     0.30860
H513        H  0.09779457  0.60318689  0.20050968     0.36770
H514        H  0.11261355  0.81665654  0.33930755     0.31230
H515        H  0.13560579  0.72240575  0.37815250     0.30100
H516        H  0.14210667  0.66998072  0.37012083     0.31780
H517        H  0.11639782  0.59928255  0.28269309     0.30750
H518        H  0.02620467  0.74481824  0.31360560     0.34750
H519        H  0.98877737  0.66569603  0.32035549     0.27480
H520        H  0.24768791  0.79325793  0.23308527     0.31720
H521        H  0.16539936  0.63687525  0.22000832     0.34570
H522        H  0.15012810  0.75864263  0.36013843     0.27180
H523        H  0.97582292  0.67290712  0.29138991     0.40050
H524        H  0.09505001  0.79396267  0.20034167     0.30100
H525        H  0.10383499  0.82421791  0.24998581     0.37720
H526        H  0.15524460  0.63546281  0.28489865     0.29570
H527        H  0.07861210  0.67982355  0.17071820     0.29630
H528        H  0.22804799  0.75052645  0.22712601     0.29900
Zr529      Zr  0.80608535  0.57537440  0.01805684     2.17510
O530        O  0.74681729  0.52127024  0.03079698    -0.52460
O531        O  0.78175797  0.61616345  0.00854632    -0.75660
O532        O  0.79286706  0.57673320  0.06868765    -0.82440
O533        O  0.79345593  0.52370837  0.45675326    -0.84190
O534        O  0.84826447  0.61230120  0.09112253    -0.79810
O535        O  0.76511120  0.55042684  0.47666539    -0.91450
O536        O  0.82411133  0.66460856  0.48213394    -0.77410
O537        O  0.85497578  0.63689471  0.02896012    -0.86900
O538        O  0.83588461  0.60351856  0.47425035    -0.86590
O539        O  0.84883535  0.56897226  0.04863313    -0.73350
O540        O  0.82776996  0.53688169  0.49789893    -0.85480
Zr541      Zr  0.94649616  0.61739035  0.49818075     2.26420
Zr542      Zr  0.89886733  0.63098852  0.05862169     2.06270
Zr543      Zr  0.85934807  0.56663591  0.45482651     2.10050
Zr544      Zr  0.88278806  0.66411757  0.48500256     1.78760
O545        O  0.83924401  0.51479015  0.42268744    -0.94290
O546        O  0.89547031  0.71861719  0.01195637    -0.42100
O547        O  0.90794350  0.62784057  0.46586961    -0.78730
O548        O  0.92626373  0.65850872  0.01458004    -0.97420
O549        O  0.91840630  0.58997979  0.04159244    -0.90720
O550        O  0.89777101  0.55707760  0.48665658    -0.93560
C551        C  0.79145379  0.64471515  0.99275648     1.00190
C552        C  0.77109573  0.53595086  0.45505322     1.13120
C553        C  0.81283668  0.59094416  0.09108718     1.03900
O554        O  0.90613228  0.68621234  0.08142449    -0.95720
O555        O  0.96653342  0.67642930  0.06083519    -0.91460
O556        O  0.98981093  0.64728523  0.03595915    -0.84610
C557        C  0.99416169  0.67465803  0.05059406     1.10540
O558        O  0.81233639  0.48145854  0.05239255    -0.97690
Zr559      Zr  0.86847095  0.52970932  0.02961647     1.88940
O560        O  0.96911437  0.57454689  0.50683849    -0.74340
O561        O  0.91924111  0.61324498  0.10104591    -0.53600
O562        O  0.88150673  0.51600133  0.07679296    -0.98280
O563        O  0.84375130  0.47124579  0.50451119    -0.55500
O564        O  0.92138730  0.52170220  0.02523068    -0.74860
C565        C  0.95468564  0.54106565  0.51608412     0.97490
O566        O  0.00314020  0.67010664  0.47961165    -0.63680
O567        O  0.85678425  0.60098079  0.41388725    -0.58480
O568        O  0.96357034  0.60229911  0.45505712    -0.95160
O569        O  0.91069899  0.56644550  0.43032290    -0.93590
O570        O  0.87734242  0.67795705  0.43597404    -0.93940
O571        O  0.93721489  0.71986101  0.46740794    -0.92730
C572        C  0.94607723  0.58219556  0.43403319     1.16330
H573        H  0.81963785  0.60599871  0.46099418     0.32270
H574        H  0.94715758  0.68340335  0.01616519     0.43130
H575        H  0.90629455  0.54181706  0.47819750     0.36650
H576        H  0.83709758  0.55576828  0.06569741     0.33130
H577        H  0.88992532  0.73374956  0.99882943     0.24920
H578        H  0.91765615  0.62867122  0.11602225     0.30860
H579        H  0.88454981  0.49412421  0.07460361     0.36770
H580        H  0.86992638  0.69703585  0.43659276     0.31230
H581        H  0.85791156  0.58742240  0.39735138     0.30100
H582        H  0.84465558  0.52576278  0.40357638     0.31780
H583        H  0.85899846  0.46048973  0.51087931     0.30750
H584        H  0.95544359  0.71193287  0.46344198     0.34750
H585        H  0.99638412  0.67427851  0.46049118     0.27480
H586        H  0.73222333  0.53138632  0.03932901     0.31720
H587        H  0.81676060  0.46060869  0.05601707     0.34570
H588        H  0.83141650  0.59723091  0.41341468     0.27180
H589        H  0.00651333  0.69178046  0.49035344     0.40050
H590        H  0.88399585  0.68755789  0.07558750     0.30100
H591        H  0.87535144  0.70941880  0.02604564     0.37720
H592        H  0.85094802  0.47839059  0.48466981     0.29570
H593        H  0.89891937  0.58774998  0.10530592     0.29630
H594        H  0.75262109  0.50936094  0.04656629     0.29900
Zr595      Zr  0.18012251  0.42279288  0.00286471     2.17510
O596        O  0.24201554  0.47342151  0.99131662    -0.52460
O597        O  0.20280836  0.38002780  0.00957883    -0.75660
O598        O  0.21405376  0.43467964  0.04829663    -0.82440
O599        O  0.13218622  0.39533967  0.43022751    -0.84190
O600        O  0.19776151  0.47147848  0.06950007    -0.79810
O601        O  0.18921950  0.42922016  0.45080651    -0.91450
O602        O  0.16429821  0.33897939  0.04234571    -0.77410
O603        O  0.15121003  0.39923425  0.04701110    -0.86900
O604        O  0.13005021  0.36092714  0.99378287    -0.86590
O605        O  0.16192018  0.46527238  0.02099333    -0.73350
O606        O  0.13507323  0.42640995  0.47406478    -0.85480
Zr607      Zr  0.04174983  0.38612621  0.02599163     2.26420
Zr608      Zr  0.13129363  0.43947598  0.06518680     2.06270
Zr609      Zr  0.08437041  0.36543211  0.46541387     2.10050
Zr610      Zr  0.10447165  0.33779450  0.03907573     1.78760
O611        O  0.05413229  0.36930422  0.42257680    -0.94290
O612        O  0.11202960  0.32542670  0.08807834    -0.42100
O613        O  0.05928103  0.34252528  0.01056188    -0.78730
O614        O  0.08229774  0.37720627  0.05719741    -0.97420
O615        O  0.09116458  0.44719741  0.03413892    -0.90720
O616        O  0.06741778  0.40917378  0.98108424    -0.93560
C617        C  0.19533927  0.35548262  0.02888165     1.00190
C618        C  0.16745527  0.41754951  0.42893238     1.13120
C619        C  0.21352400  0.45225276  0.07024552     1.03900
O620        O  0.14027209  0.42210217  0.11229168    -0.95720
O621        O  0.07942259  0.42772008  0.09534860    -0.91460
O622        O  0.02659948  0.40364324  0.06914624    -0.84610
C623        C  0.04438800  0.41512952  0.09218403     1.10540
O624        O  0.17347785  0.51239314  0.96223713    -0.97690
Zr625      Zr  0.11905842  0.47004585  0.98979695     1.88940
O626        O  0.02098868  0.43013920  0.01651735    -0.74340
O627        O  0.14740400  0.50084444  0.08166702    -0.53600
O628        O  0.14781651  0.53006796  0.01303374    -0.98280
O629        O  0.10433330  0.48382601  0.44318034    -0.55500
O630        O  0.06904013  0.48192750  0.99731546    -0.74860
C631        C  0.03613064  0.46365706  0.00727408     0.97490
O632        O  0.98657612  0.33644199  0.04896416    -0.63680
O633        O  0.08437690  0.31177562  0.44576887    -0.58480
O634        O  0.99488659  0.35036875  0.99179009    -0.95160
O635        O  0.01752550  0.31830034  0.47022338    -0.93590
O636        O  0.08967525  0.28212307  0.01295778    -0.93940
O637        O  0.05051783  0.28376202  0.05906587    -0.92730
C638        C  0.99017269  0.32117050  0.47968449     1.16330
H639        H  0.13861220  0.34593427  0.48482723     0.32270
H640        H  0.06944092  0.36625078  0.07458513     0.43130
H641        H  0.04952317  0.41008712  0.46860048     0.36650
H642        H  0.18350842  0.48962167  0.02334294     0.33130
H643        H  0.11705325  0.30465849  0.08750684     0.24920
H644        H  0.15923177  0.50301390  0.10021616     0.30860
H645        H  0.13785309  0.54412851  0.00305600     0.36770
H646        H  0.10369925  0.27193310  0.02268686     0.31230
H647        H  0.06305333  0.30089545  0.43257591     0.30100
H648        H  0.05902465  0.35496733  0.40853744     0.31780
H649        H  0.10417434  0.50729650  0.44542435     0.30750
H650        H  0.03140390  0.29111140  0.06025516     0.34750
H651        H  0.98131840  0.31343655  0.03924770     0.27480
H652        H  0.25879971  0.46411440  0.99688483     0.31720
H653        H  0.17343560  0.53606806  0.96130786     0.34570
H654        H  0.10653946  0.32221085  0.43353923     0.27180
H655        H  0.99503739  0.33367685  0.06785913     0.40050
H656        H  0.12230703  0.39517551  0.11376234     0.30100
H657        H  0.13597478  0.34707699  0.09390621     0.37720
H658        H  0.07797936  0.46492723  0.43987974     0.29570
H659        H  0.16800452  0.51830970  0.06936600     0.29630
H660        H  0.24698943  0.49288764  0.00522437     0.29900
Zr661      Zr  0.22386064  0.41947549  0.25532713     2.17510
O662        O  0.21467458  0.46975778  0.23892811    -0.52460
O663        O  0.15866422  0.37610987  0.26406594    -0.75660
O664        O  0.21211201  0.41517625  0.20387463    -0.82440
O665        O  0.25999875  0.47657792  0.31518506    -0.84190
O666        O  0.23573102  0.38166321  0.18426592    -0.79810
O667        O  0.20491366  0.44474419  0.29470765    -0.91450
O668        O  0.15546131  0.33239578  0.29457683    -0.77410
O669        O  0.21488126  0.35876060  0.24762969    -0.86900
O670        O  0.22619519  0.39564869  0.30096959    -0.86590
O671        O  0.27544065  0.42713989  0.22749801    -0.73350
O672        O  0.28338792  0.46224816  0.27575672    -0.85480
Zr673      Zr  0.32800621  0.38848141  0.28309768     2.26420
Zr674      Zr  0.26692817  0.36597188  0.22045382     2.06270
Zr675      Zr  0.28596728  0.43702725  0.32086848     2.10050
Zr676      Zr  0.21599332  0.33580346  0.29343883     1.78760
O677        O  0.32430373  0.49419743  0.34664970    -0.94290
O678        O  0.17622586  0.27905856  0.26755750    -0.42100
O679        O  0.27695506  0.37678529  0.31285699    -0.78730
O680        O  0.26736981  0.34333321  0.26644003    -0.97420
O681        O  0.32678977  0.41124582  0.23780109    -0.90720
O682        O  0.33622354  0.44809532  0.29155339    -0.93560
C683        C  0.14116906  0.34962193  0.28189110     1.00190
C684        C  0.22497952  0.46203482  0.31621422     1.13120
C685        C  0.22036560  0.40167368  0.18250183     1.03900
O686        O  0.21981992  0.30835116  0.19909328    -0.95720
O687        O  0.29117213  0.32192109  0.22271892    -0.91460
O688        O  0.33847537  0.34791220  0.25420911    -0.84610
C689        C  0.31762685  0.32192810  0.23724893     1.10540
O690        O  0.32324727  0.51591473  0.22140435    -0.97690
Zr691      Zr  0.33360830  0.47076663  0.24660425     1.88940
O692        O  0.39199000  0.42936044  0.26956610    -0.74340
O693        O  0.30695430  0.38185738  0.17955245    -0.53600
O694        O  0.35998921  0.48327655  0.19956339    -0.98280
O695        O  0.36623171  0.53073747  0.27002419    -0.55500
O696        O  0.39586384  0.48210436  0.25258904    -0.74860
C697        C  0.41047743  0.46305223  0.26080500     0.97490
O698        O  0.33459203  0.34286447  0.31099483    -0.63680
O699        O  0.25077007  0.41023295  0.36396435    -0.58480
O700        O  0.36493590  0.41779500  0.32350988    -0.95160
O701        O  0.32591099  0.42556842  0.35158627    -0.93590
O702        O  0.19808254  0.32507350  0.34272320    -0.93940
O703        O  0.21536400  0.28252472  0.31547793    -0.92730
C704        C  0.35330218  0.42040976  0.34742320     1.16330
H705        H  0.20677324  0.39272359  0.31343865     0.32270
H706        H  0.26458667  0.31897713  0.26656320     0.43130
H707        H  0.35952238  0.46546190  0.30033733     0.36650
H708        H  0.27720029  0.43931088  0.20981065     0.33130
H709        H  0.15565607  0.26362756  0.28062271     0.24920
H710        H  0.29056541  0.36524500  0.16456753     0.30860
H711        H  0.38486875  0.50567358  0.20155607     0.36770
H712        H  0.17107198  0.30696557  0.34254972     0.31230
H713        H  0.26056657  0.43070851  0.37766484     0.30100
H714        H  0.31897720  0.48720794  0.36671704     0.31780
H715        H  0.38636047  0.53052677  0.28104392     0.30750
H716        H  0.23222566  0.27772649  0.30408175     0.34750
H717        H  0.36069625  0.35544162  0.31761279     0.27480
H718        H  0.19044906  0.45746648  0.22900538     0.31720
H719        H  0.34824225  0.53763247  0.21800828     0.34570
H720        H  0.22490754  0.40389034  0.36019515     0.27180
H721        H  0.31960521  0.33892608  0.32805448     0.40050
H722        H  0.19598167  0.30731232  0.20280376     0.30100
H723        H  0.16447019  0.28644144  0.25267359     0.37720
H724        H  0.34857215  0.52954970  0.28434954     0.29570
H725        H  0.31201614  0.40685191  0.17385545     0.29630
H726        H  0.23338470  0.48245856  0.22397479     0.29900
Zr727      Zr  0.75292827  0.57458146  0.26954344     2.17510
O728        O  0.76222121  0.52277364  0.28053710    -0.52460
O729        O  0.81847710  0.61591016  0.26125613    -0.75660
O730        O  0.77089073  0.56006295  0.22405520    -0.82440
O731        O  0.73994077  0.60354433  0.34290601    -0.84190
O732        O  0.71604312  0.52510560  0.20338151    -0.79810
O733        O  0.76074136  0.56919909  0.32094365    -0.91450
O734        O  0.82128007  0.65827987  0.22954791    -0.77410
O735        O  0.74623467  0.59847810  0.22572900    -0.86900
O736        O  0.76797644  0.63715533  0.27878458    -0.86590
O737        O  0.69038563  0.53318189  0.25296674    -0.73350
O738        O  0.70712822  0.57255034  0.30032823    -0.85480
Zr739      Zr  0.65421848  0.61551270  0.24973817     2.26420
Zr740      Zr  0.68423465  0.55910019  0.20907532     2.06270
Zr741      Zr  0.72066065  0.63431581  0.30905488     2.10050
Zr742      Zr  0.76360677  0.66055092  0.23392110     1.78760
O743        O  0.69142720  0.63190433  0.35371838    -0.94290
O744        O  0.78346596  0.67470259  0.18512811    -0.42100
O745        O  0.71677056  0.65779073  0.26434321    -0.78730
O746        O  0.70051657  0.62215428  0.21671056    -0.97420
O747        O  0.63945651  0.55373780  0.24176516    -0.90720
O748        O  0.65829663  0.59217530  0.29441589    -0.93560
C749        C  0.83545745  0.64092730  0.24229747     1.00190
C750        C  0.75266128  0.58117476  0.34333490     1.13120
C751        C  0.75125334  0.54292547  0.20234324     1.03900
O752        O  0.70892132  0.57969089  0.16200754    -0.95720
O753        O  0.63576961  0.56258866  0.18246370    -0.91460
O754        O  0.61960386  0.59859699  0.20692532    -0.84610
C755        C  0.61699180  0.57904462  0.18564755     1.10540
O756        O  0.65775900  0.48890557  0.31428451    -0.97690
Zr757      Zr  0.64570576  0.53051476  0.28568548     1.88940
O758        O  0.58902502  0.57297003  0.25945868    -0.74340
O759        O  0.63959464  0.49788664  0.19123989    -0.53600
O760        O  0.61207960  0.46963972  0.26382641    -0.98280
O761        O  0.61737832  0.51808526  0.33210712    -0.55500
O762        O  0.58430758  0.52051172  0.27796925    -0.74860
C763        C  0.57011727  0.53937791  0.26841880     0.97490
O764        O  0.64991478  0.66686299  0.22884324    -0.63680
O765        O  0.77727882  0.68780777  0.32654708    -0.58480
O766        O  0.64515118  0.65032172  0.28525837    -0.95160
O767        O  0.70085090  0.68118953  0.30681676    -0.93590
O768        O  0.80724943  0.71585941  0.25970379    -0.93940
O769        O  0.76284835  0.71447913  0.21483164    -0.92730
C770        C  0.67022089  0.67863864  0.29821355     1.16330
H771        H  0.79234926  0.65168416  0.28709830     0.32270
H772        H  0.69768065  0.63273471  0.19937012     0.43130
H773        H  0.64055223  0.59201448  0.30744315     0.36650
H774        H  0.68648182  0.50852058  0.25054506     0.33130
H775        H  0.80802796  0.69772574  0.18594173     0.24920
H776        H  0.65061558  0.49561948  0.17355597     0.30860
H777        H  0.58803087  0.45653667  0.27383087     0.36770
H778        H  0.83060694  0.72644425  0.24884189     0.31230
H779        H  0.76851552  0.70112265  0.33848231     0.30100
H780        H  0.71230388  0.64770431  0.36645515     0.31780
H781        H  0.59410143  0.49389847  0.33025123     0.30750
H782        H  0.73621756  0.70696236  0.21419014     0.34750
H783        H  0.66949749  0.68939217  0.23826644     0.27480
H784        H  0.78787594  0.53116206  0.27427888     0.31720
H785        H  0.63382731  0.46521991  0.31536063     0.34570
H786        H  0.78797470  0.67741643  0.33995868     0.27180
H787        H  0.65921503  0.66925910  0.20941660     0.40050
H788        H  0.73496743  0.59955352  0.16496263     0.30100
H789        H  0.78922665  0.65536260  0.17961263     0.37720
H790        H  0.60893961  0.53620664  0.33439098     0.29570
H791        H  0.64111792  0.48018300  0.20439102     0.29630
H792        H  0.74617092  0.50326550  0.26699163     0.29900
C793        C  0.46924792  0.46476976  0.27427248    -0.14470
C794        C  0.45135856  0.48189281  0.26136963     0.07680
C795        C  0.47284584  0.51831997  0.25094036    -0.14470
C796        C  0.51142376  0.53732430  0.25358679    -0.14470
C797        C  0.52925767  0.52028890  0.26674751     0.07680
C798        C  0.50775089  0.48376183  0.27696148    -0.14470
H799        H  0.45350833  0.43688726  0.28274934     0.11660
H800        H  0.45987290  0.53234890  0.24093538     0.11660
H801        H  0.52722734  0.56524830  0.24519642     0.11660
H802        H  0.52061676  0.46969601  0.28707526     0.11660
C803        C  0.22210086  0.46260424  0.12221018    -0.14470
C804        C  0.22187579  0.44257272  0.09847421     0.07680
C805        C  0.22088191  0.40874292  0.10278358    -0.14470
C806        C  0.21868909  0.39466376  0.12999570    -0.14470
C807        C  0.21721667  0.41390730  0.15366162     0.07680
C808        C  0.21948066  0.44832662  0.14939345    -0.14470
H809        H  0.22254236  0.48863120  0.11970265     0.11660
H810        H  0.22005968  0.39225527  0.08510304     0.11660
H811        H  0.21797475  0.36850629  0.13250814     0.11660
H812        H  0.21984516  0.46458184  0.16710695     0.11660
C813        C  0.21735153  0.46287790  0.39555788    -0.14470
C814        C  0.18218104  0.43151165  0.40008595     0.07680
C815        C  0.15916999  0.41463724  0.37645823    -0.14470
C816        C  0.17166788  0.42717654  0.34915537    -0.14470
C817        C  0.20774012  0.45685750  0.34447085     0.07680
C818        C  0.22991700  0.47548091  0.36808388    -0.14470
H819        H  0.23540840  0.47724412  0.41315543     0.11660
H820        H  0.13155240  0.39082421  0.37891874     0.11660
H821        H  0.15392637  0.41187768  0.33167375     0.11660
H822        H  0.25794966  0.49844932  0.36528200     0.11660
C823        C  0.96251054  0.48672731  0.02684599    -0.14470
C824        C  0.97668076  0.52235737  0.01501119     0.07680
C825        C  0.01045545  0.53839761  0.50035356    -0.14470
C826        C  0.02944775  0.51905848  0.49744813    -0.14470
C827        C  0.01502734  0.48325803  0.00910777     0.07680
C828        C  0.98143832  0.46740289  0.02390813    -0.14470
H829        H  0.93652408  0.47350079  0.03824121     0.11660
H830        H  0.02188949  0.56558335  0.49072804     0.11660
H831        H  0.05540151  0.53217645  0.48601311     0.11660
H832        H  0.96984845  0.44015039  0.03344442     0.11660
C833        C  0.74869466  0.56819079  0.42276656    -0.14470
C834        C  0.75943222  0.54156818  0.42661819     0.07680
C835        C  0.76620322  0.52640166  0.40255298    -0.14470
C836        C  0.76439623  0.53916075  0.37545467    -0.14470
C837        C  0.75555698  0.56726763  0.37177459     0.07680
C838        C  0.74690582  0.58089245  0.39585852    -0.14470
H839        H  0.74366634  0.58085586  0.44065704     0.11660
H840        H  0.77432950  0.50565774  0.40471907     0.11660
H841        H  0.77035221  0.52735639  0.35748006     0.11660
H842        H  0.73933638  0.60211305  0.39409276     0.11660
C843        C  0.81702946  0.59672234  0.14348530    -0.14470
C844        C  0.79566534  0.57910565  0.11937427     0.07680
C845        C  0.76079482  0.54699378  0.12302219    -0.14470
C846        C  0.74748171  0.53333393  0.15007796    -0.14470
C847        C  0.76870823  0.55145683  0.17412738     0.07680
C848        C  0.80386074  0.58300814  0.17038144    -0.14470
H849        H  0.84428670  0.62124230  0.14164319     0.11660
H850        H  0.74401833  0.53214098  0.10500302     0.11660
H851        H  0.71998976  0.50922549  0.15220641     0.11660
H852        H  0.82066100  0.59816300  0.18828383     0.11660
C853        C  0.03203422  0.60740107  0.39414704    -0.14470
C854        C  0.01756287  0.60136878  0.36687117     0.07680
C855        C  0.97908900  0.57771703  0.36269865    -0.14470
C856        C  0.95493671  0.56715577  0.38535763    -0.14470
C857        C  0.96930326  0.57947637  0.41227046     0.07680
C858        C  0.00790504  0.59617139  0.41684519    -0.14470
H859        H  0.06160602  0.62450943  0.39796558     0.11660
H860        H  0.96728075  0.57121376  0.34174225     0.11660
H861        H  0.92530385  0.55306665  0.38137382     0.11660
H862        H  0.01973618  0.60444902  0.43768323     0.11660
C863        C  0.91628203  0.62571959  0.23045409    -0.14470
C864        C  0.94565062  0.66146894  0.22383709     0.07680
C865        C  0.93754794  0.69017151  0.22012537    -0.14470
C866        C  0.90137602  0.68363330  0.22500575    -0.14470
C867        C  0.87305042  0.64848970  0.23413853     0.07680
C868        C  0.88071893  0.61942720  0.23575174    -0.14470
H869        H  0.92133592  0.60286533  0.23332140     0.11660
H870        H  0.95959204  0.71811434  0.21540921     0.11660
H871        H  0.89609116  0.70643058  0.22315855     0.11660
H872        H  0.85926326  0.59174853  0.24183276     0.11660
C873        C  0.98854549  0.40934850  0.11619163    -0.14470
C874        C  0.02164776  0.40799321  0.11713144     0.07680
C875        C  0.02842698  0.39074534  0.13973031    -0.14470
C876        C  0.00220294  0.37394999  0.16059987    -0.14470
C877        C  0.96891194  0.37480471  0.15991274     0.07680
C878        C  0.96223715  0.39294646  0.13770174    -0.14470
H879        H  0.98257077  0.42186337  0.09838037     0.11660
H880        H  0.05287073  0.38789602  0.14028920     0.11660
H881        H  0.00776883  0.35939323  0.17707834     0.11660
H882        H  0.93686198  0.39406940  0.13687465     0.11660
C883        C  0.03870116  0.29775351  0.30349632    -0.14470
C884        C  0.03028242  0.32642128  0.30159957     0.07680
C885        C  0.05927550  0.36250565  0.29523465    -0.14470
C886        C  0.09472604  0.36935286  0.28885059    -0.14470
C887        C  0.10291739  0.34063810  0.28934581     0.07680
C888        C  0.07491802  0.30492393  0.29774213    -0.14470
H889        H  0.01702035  0.26960704  0.30808772     0.11660
H890        H  0.05417274  0.38545983  0.29376866     0.11660
H891        H  0.11586890  0.39740684  0.28332522     0.11660
H892        H  0.08062978  0.28235976  0.29874673     0.11660
C893        C  0.95688629  0.47846866  0.28081173    -0.14470
C894        C  0.96958595  0.45765830  0.26644122     0.07680
C895        C  0.00065151  0.47619741  0.24891748    -0.14470
C896        C  0.01877494  0.51471548  0.24600037    -0.14470
C897        C  0.00625159  0.53553241  0.26057195     0.07680
C898        C  0.97499785  0.51696027  0.27789583    -0.14470
H899        H  0.93292087  0.46502887  0.29446021     0.11660
H900        H  0.01075673  0.46095225  0.23724701     0.11660
H901        H  0.04286340  0.52822446  0.23247626     0.11660
H902        H  0.96501361  0.53220299  0.28971278     0.11660
C903        C  0.80762460  0.24319016  0.42653522    -0.14470
C904        C  0.77098374  0.23495834  0.43071152     0.07680
C905        C  0.74862364  0.22987191  0.40680007    -0.14470
C906        C  0.76175304  0.23036719  0.37955825    -0.14470
C907        C  0.79765313  0.23617068  0.37557460     0.07680
C908        C  0.82065572  0.24361102  0.39948389    -0.14470
H909        H  0.82556565  0.24687198  0.44428334     0.11660
H910        H  0.72019875  0.22347888  0.40923270     0.11660
H911        H  0.74360332  0.22555091  0.36173672     0.11660
H912        H  0.84878746  0.24893544  0.39748486     0.11660
C913        C  0.76200635  0.16668330  0.14677470    -0.14470
C914        C  0.76454544  0.18779118  0.12271662     0.07680
C915        C  0.76460984  0.22116990  0.12630298    -0.14470
C916        C  0.76316219  0.23355112  0.15325106    -0.14470
C917        C  0.76201126  0.21307933  0.17732606     0.07680
C918        C  0.76072852  0.17913245  0.17368555    -0.14470
H919        H  0.76110086  0.14041882  0.14483536     0.11660
H920        H  0.76528477  0.23751722  0.10827603     0.11660
H921        H  0.76456582  0.26003842  0.15530402     0.11660
H922        H  0.76053512  0.16297455  0.19166118     0.11660
C923        C  0.90639233  0.22250791  0.48034357    -0.14470
C924        C  0.87842785  0.22914430  0.49005393     0.07680
C925        C  0.88677873  0.26599794  0.99274962    -0.14470
C926        C  0.92232419  0.29541726  0.98720096    -0.14470
C927        C  0.95121808  0.28925491  0.47915734     0.07680
C928        C  0.94263717  0.25234707  0.47519214    -0.14470
H929        H  0.90058750  0.19435588  0.47766151     0.11660
H930        H  0.86578862  0.27233416  0.99932606     0.11660
H931        H  0.92748354  0.32329257  0.99029400     0.11660
H932        H  0.96416737  0.24650286  0.46924897     0.11660
C933        C  0.50822424  0.02774360  0.02550338    -0.14470
C934        C  0.52951039  0.01351429  0.01410690     0.07680
C935        C  0.51151962  0.97931729  0.50022816    -0.14470
C936        C  0.47287056  0.95991113  0.49755918    -0.14470
C937        C  0.45150471  0.97444747  0.00868560     0.07680
C938        C  0.46970556  0.00846345  0.02280162    -0.14470
H939        H  0.52130548  0.05404403  0.03636300     0.11660
H940        H  0.52714930  0.96781146  0.49101344     0.11660
H941        H  0.45966800  0.93362279  0.48668442     0.11660
H942        H  0.45421047  0.02015941  0.03195376     0.11660
C943        C  0.21263809  0.77060250  0.15060270    -0.14470
C944        C  0.18042919  0.77275540  0.15455686     0.07680
C945        C  0.15980123  0.77193530  0.13068043    -0.14470
C946        C  0.17148789  0.76994542  0.10363094    -0.14470
C947        C  0.20421402  0.76881854  0.09959724     0.07680
C948        C  0.22427804  0.76847594  0.12347811    -0.14470
H949        H  0.22849844  0.76988427  0.16847885     0.11660
H950        H  0.13439539  0.77276381  0.13288927     0.11660
H951        H  0.15574299  0.77102721  0.08585260     0.11660
H952        H  0.24989757  0.76809046  0.12113378     0.11660
C953        C  0.23201243  0.82640181  0.37757212    -0.14470
C954        C  0.22469792  0.80387895  0.40172522     0.07680
C955        C  0.21802259  0.76764147  0.39815564    -0.14470
C956        C  0.21722344  0.75395570  0.37111970    -0.14470
C957        C  0.22281474  0.77604124  0.34697667     0.07680
C958        C  0.23120619  0.81276897  0.35070018    -0.14470
H959        H  0.23783700  0.85468354  0.37929044     0.11660
H960        H  0.21321078  0.74979683  0.41619372     0.11660
H961        H  0.21083747  0.72555712  0.36905751     0.11660
H962        H  0.23519738  0.83049390  0.33274013     0.11660
C963        C  0.09739905  0.72936157  0.03905744    -0.14470
C964        C  0.10507423  0.76615487  0.03958546     0.07680
C965        C  0.07712086  0.77303992  0.04884769    -0.14470
C966        C  0.04121693  0.74328251  0.05504623    -0.14470
C967        C  0.03308364  0.70629900  0.05268320     0.07680
C968        C  0.06221608  0.70001659  0.04579701    -0.14470
H969        H  0.11863587  0.72314122  0.03294253     0.11660
H970        H  0.08248199  0.80121364  0.04991948     0.11660
H971        H  0.01938908  0.74914505  0.05995313     0.11660
H972        H  0.05726729  0.67204033  0.04395196     0.11660
C973        C  0.55968229  0.60751957  0.14301382    -0.14470
C974        C  0.56847415  0.60169100  0.11592104     0.07680
C975        C  0.58390706  0.57875010  0.11243924    -0.14470
C976        C  0.59622576  0.56735727  0.13566707    -0.14470
C977        C  0.59285731  0.57844926  0.16261974     0.07680
C978        C  0.57165534  0.59578906  0.16625495    -0.14470
H979        H  0.54703798  0.62432784  0.14636070     0.11660
H980        H  0.58991903  0.57271065  0.09170562     0.11660
H981        H  0.61157341  0.55317292  0.13224719     0.11660
H982        H  0.56746281  0.60360245  0.18693986     0.11660
C983        C  0.74035299  0.69715546  0.47541388    -0.14470
C984        C  0.70309891  0.66816960  0.47686377     0.07680
C985        C  0.69595455  0.63172416  0.48077490    -0.14470
C986        C  0.72480407  0.62461362  0.98528888    -0.14470
C987        C  0.76196839  0.65360756  0.48571540     0.07680
C988        C  0.76962602  0.68987396  0.47961390    -0.14470
H989        H  0.74679198  0.72556819  0.47272065     0.11660
H990        H  0.66767326  0.60864719  0.98173964     0.11660
H991        H  0.71788457  0.59620663  0.98905831     0.11660
H992        H  0.79802993  0.71272117  0.47943254     0.11660
C993        C  0.61448362  0.88890765  0.03766523    -0.14470
C994        C  0.64348056  0.88115396  0.04006419     0.07680
C995        C  0.67827724  0.90938658  0.04990678    -0.14470
C996        C  0.68456670  0.94546247  0.05481719    -0.14470
C997        C  0.65593261  0.95360819  0.05048789     0.07680
C998        C  0.62049275  0.92431789  0.04301415    -0.14470
H999        H  0.58702847  0.86759333  0.03101868     0.11660
H1000       H  0.70103988  0.90410362  0.05237570     0.11660
H1001       H  0.71231035  0.96740559  0.06015891     0.11660
H1002       H  0.59766170  0.92932522  0.03961134     0.11660
C1003       C  0.29198287  0.36987970  0.03933518    -0.14470
C1004       C  0.28538823  0.33467770  0.04788928     0.07680
C1005       C  0.24829912  0.30659767  0.05269632    -0.14470
C1006       C  0.21865831  0.31317727  0.04742134    -0.14470
C1007       C  0.22557934  0.34769444  0.03670130     0.07680
C1008       C  0.26269593  0.37614856  0.03362580    -0.14470
H1009       H  0.32003344  0.39235372  0.03553076     0.11660
H1010       H  0.24207714  0.27903579  0.05889047     0.11660
H1011       H  0.19036611  0.29083000  0.05045478     0.11660
H1012       H  0.26921677  0.40342002  0.02629834     0.11660
C1013       C  0.35456845  0.35449721  0.39730039    -0.14470
C1014       C  0.39251636  0.36994843  0.40272447     0.07680
C1015       C  0.41823264  0.40483565  0.39184337    -0.14470
C1016       C  0.40561170  0.42368436  0.37481978    -0.14470
C1017       C  0.36728501  0.40857829  0.37054758     0.07680
C1018       C  0.34193738  0.37420107  0.38212709    -0.14470
H1019       H  0.33446614  0.32780546  0.40612518     0.11660
H1020       H  0.44749910  0.41750535  0.39690080     0.11660
H1021       H  0.42541835  0.44962409  0.36486651     0.11660
H1022       H  0.31241349  0.36146321  0.37787013     0.11660
C1023       C  0.51087424  0.47885218  0.01711135    -0.14470
C1024       C  0.47275052  0.45792065  0.01039990     0.07680
C1025       C  0.45397044  0.47651971  0.00243570    -0.14470
C1026       C  0.47286711  0.51517726  0.00125366    -0.14470
C1027       C  0.51097706  0.53609190  0.00800255     0.07680
C1028       C  0.52974913  0.51748535  0.01595657    -0.14470
H1029       H  0.52633824  0.46542782  0.02320301     0.11660
H1030       H  0.42469613  0.46126404  0.99712273     0.11660
H1031       H  0.45742248  0.52864268  0.99522068     0.11660
H1032       H  0.55900375  0.53272195  0.02133745     0.11660
C1033       C  0.29794450  0.08150432  0.47990089    -0.14470
C1034       C  0.33275748  0.10943499  0.48994596     0.07680
C1035       C  0.36135944  0.10133810  0.99265178    -0.14470
C1036       C  0.35526731  0.06611879  0.98681023    -0.14470
C1037       C  0.32013667  0.03725473  0.47851693     0.07680
C1038       C  0.29155921  0.04554266  0.47450268    -0.14470
H1039       H  0.27544156  0.08711603  0.47710556     0.11660
H1040       H  0.38886995  0.12234087  0.99945167     0.11660
H1041       H  0.37818560  0.06119328  0.98993956     0.11660
H1042       H  0.26403177  0.02399949  0.46827293     0.11660
C1043       C  0.56155718  0.97776807  0.38177192    -0.14470
C1044       C  0.58520564  0.96590279  0.37153643     0.07680
C1045       C  0.62291877  0.98473200  0.37843370    -0.14470
C1046       C  0.63748162  0.01591862  0.39484033    -0.14470
C1047       C  0.61412342  0.02742414  0.40590766     0.07680
C1048       C  0.57591938  0.00800881  0.39997877    -0.14470
H1049       H  0.53258697  0.96397186  0.37558532     0.11660
H1050       H  0.64147994  0.97613104  0.37003952     0.11660
H1051       H  0.66673521  0.02978931  0.40037455     0.11660
H1052       H  0.55754479  0.01596293  0.40960763     0.11660
C1053       C  0.68925259  0.06799653  0.23544809    -0.14470
C1054       C  0.69543777  0.03917973  0.22744714     0.07680
C1055       C  0.73243522  0.04782958  0.22342446    -0.14470
C1056       C  0.76235682  0.08386803  0.22899632    -0.14470
C1057       C  0.75577241  0.11160760  0.23922113     0.07680
C1058       C  0.71880952  0.10337647  0.24145687    -0.14470
H1059       H  0.66127211  0.06266087  0.23864214     0.11660
H1060       H  0.73830736  0.02628851  0.21767692     0.11660
H1061       H  0.79055188  0.08951854  0.22660603     0.11660
H1062       H  0.71261035  0.12430135  0.24837134     0.11660
C1063       C  0.57562855  0.75065857  0.37915323    -0.14470
C1064       C  0.56015127  0.75768757  0.40296096     0.07680
C1065       C  0.52968549  0.76290959  0.39885191    -0.14470
C1066       C  0.51656167  0.76319551  0.37158321    -0.14470
C1067       C  0.53372735  0.75851683  0.34775684     0.07680
C1068       C  0.56255875  0.75093260  0.35205314    -0.14470
H1069       H  0.59869734  0.74578492  0.38129044     0.11660
H1070       H  0.51639234  0.76738201  0.41661310     0.11660
H1071       H  0.49424193  0.76912270  0.36906858     0.11660
H1072       H  0.57676627  0.74763262  0.33437116     0.11660
C1073       C  0.54039015  0.76999691  0.15148727    -0.14470
C1074       C  0.57291216  0.80437616  0.15548418     0.07680
C1075       C  0.59119747  0.82605404  0.13161120    -0.14470
C1076       C  0.57782473  0.81344322  0.10453563    -0.14470
C1077       C  0.54581879  0.77871071  0.10047610     0.07680
C1078       C  0.52693718  0.75739861  0.12433928    -0.14470
H1079       H  0.52497994  0.75307813  0.16933463     0.11660
H1080       H  0.61600296  0.85300568  0.13382044     0.11660
H1081       H  0.59350916  0.83028939  0.08676657     0.11660
H1082       H  0.50240233  0.73027897  0.12199807     0.11660
C1083       C  0.68470019  0.77621607  0.29579673    -0.14470
C1084       C  0.64820316  0.76813461  0.28992216     0.07680
C1085       C  0.61924816  0.73112975  0.29151562    -0.14470
C1086       C  0.62653337  0.70265548  0.29715355    -0.14470
C1087       C  0.66316581  0.71003620  0.30074452     0.07680
C1088       C  0.69220147  0.74728281  0.30089495    -0.14470
H1089       H  0.70749716  0.80460714  0.29511995     0.11660
H1090       H  0.59070822  0.72401452  0.28794235     0.11660
H1091       H  0.60337757  0.67441251  0.29716355     0.11660
H1092       H  0.72074010  0.75388147  0.30329743     0.11660
C1093       C  0.41928007  0.02334129  0.14016568    -0.14470
C1094       C  0.39255659  0.02399748  0.15743490     0.07680
C1095       C  0.35487557  0.99772114  0.15378846    -0.14470
C1096       C  0.34374003  0.97031812  0.13388705    -0.14470
C1097       C  0.36994247  0.96938690  0.11645309     0.07680
C1098       C  0.40780413  0.99627234  0.11921014    -0.14470
H1099       H  0.44851257  0.04330617  0.14297992     0.11660
H1100       H  0.33383689  0.99835187  0.16652245     0.11660
H1101       H  0.31429317  0.95097438  0.13106415     0.11660
H1102       H  0.42809974  0.99649469  0.10503199     0.11660
C1103       C  0.24189093  0.94786999  0.30128007    -0.14470
C1104       C  0.27899547  0.95608394  0.29912837     0.07680
C1105       C  0.28547150  0.92684824  0.29335629    -0.14470
C1106       C  0.25617841  0.89121766  0.28797687    -0.14470
C1107       C  0.21916915  0.88316324  0.28862624     0.07680
C1108       C  0.21216590  0.91156186  0.29632228    -0.14470
H1109       H  0.23588463  0.96975780  0.30540690     0.11660
H1110       H  0.31352173  0.93180818  0.29172452     0.11660
H1111       H  0.26266136  0.86986260  0.28296160     0.11660
H1112       H  0.18389719  0.90607389  0.29736211     0.11660
C1113       C  0.50831116  0.03203022  0.27460835    -0.14470
C1114       C  0.47064414  0.01577162  0.26683517     0.07680
C1115       C  0.45188169  0.97912606  0.25712492    -0.14470
C1116       C  0.47031177  0.95912585  0.25536083    -0.14470
C1117       C  0.50794592  0.97535600  0.26322121     0.07680
C1118       C  0.52674416  0.01205799  0.27281131    -0.14470
H1119       H  0.52374578  0.06034394  0.28200922     0.11660
H1120       H  0.42295239  0.96584552  0.25088745     0.11660
H1121       H  0.45489093  0.93079722  0.24799165     0.11660
H1122       H  0.55565115  0.02534109  0.27911292     0.11660
C1123       C  0.40378920  0.22721710  0.17310406    -0.14470
C1124       C  0.43709811  0.22707347  0.17723143     0.08400
C1125       C  0.45705618  0.22716852  0.15343158    -0.14470
C1126       C  0.44317309  0.22567785  0.12626685    -0.14470
C1127       C  0.40920401  0.22451516  0.12220096     0.07680
C1128       C  0.39004418  0.22594603  0.14598621    -0.14470
H1129       H  0.38732180  0.22643935  0.19085145     0.11660
H1130       H  0.48265731  0.22667946  0.15586209     0.11660
H1131       H  0.45928311  0.22592040  0.10845137     0.11660
H1132       H  0.36415847  0.22590252  0.14365965     0.11660
C1133       C  0.40627596  0.16493525  0.39875127    -0.14470
C1134       C  0.42216627  0.18783728  0.37486045     0.07680
C1135       C  0.45199394  0.22400730  0.37900821    -0.14470
C1136       C  0.46409300  0.23745496  0.40631369    -0.14470
C1137       C  0.44650429  0.21519193  0.43016220     0.07680
C1138       C  0.41830602  0.17834359  0.42592615    -0.14470
H1139       H  0.38364516  0.13664080  0.39659514     0.11660
H1140       H  0.46554232  0.24213580  0.36122701     0.11660
H1141       H  0.48596140  0.26602709  0.40878173     0.11660
H1142       H  0.40380287  0.16049141  0.44363652     0.11660
C1143       C  0.34575247  0.25468763  0.26560733    -0.14470
C1144       C  0.33535025  0.22797525  0.24460673     0.07680
C1145       C  0.31782667  0.23163956  0.22018862    -0.14470
C1146       C  0.31155413  0.26189803  0.21701488    -0.14470
C1147       C  0.32337734  0.28921334  0.23799415     0.07680
C1148       C  0.34021275  0.28457240  0.26228328    -0.14470
H1149       H  0.35885347  0.25292035  0.28484315     0.11660
H1150       H  0.30965873  0.21162570  0.20343342     0.11660
H1151       H  0.29815658  0.26421875  0.19816234     0.11660
H1152       H  0.34927955  0.30415286  0.27931516     0.11660
Zr1153     Zr  0.41485289  0.18384298  0.77224435     2.17510
O1154       O  0.46555691  0.24562905  0.78367230    -0.52460
O1155       O  0.37116372  0.20550324  0.76690150    -0.75660
O1156       O  0.42842244  0.21853209  0.72719276    -0.82440
O1157       O  0.38597337  0.13732283  0.84521676    -0.84190
O1158       O  0.46414765  0.20076025  0.70592548    -0.79810
O1159       O  0.42101485  0.19375165  0.82405675    -0.91450
O1160       O  0.33011609  0.16916124  0.73348611    -0.77410
O1161       O  0.39112905  0.15540890  0.72800599    -0.86900
O1162       O  0.35251114  0.13476505  0.78140698    -0.86590
O1163       O  0.45658805  0.16460823  0.75415797    -0.73350
O1164       O  0.41781132  0.13885857  0.80160909    -0.85480
Zr1165     Zr  0.37504914  0.04521199  0.74991933     2.26420
Zr1166     Zr  0.43063499  0.13426706  0.70995581     2.06270
Zr1167     Zr  0.35615749  0.08915491  0.81035319     2.10050
Zr1168     Zr  0.32915033  0.10955352  0.73613624     1.78760
O1169       O  0.36021710  0.05945861  0.85344555    -0.94290
O1170       O  0.31770698  0.11822108  0.68714442    -0.42100
O1171       O  0.33246196  0.06405126  0.76535965    -0.78730
O1172       O  0.36779398  0.08645532  0.71838309    -0.97420
O1173       O  0.43680208  0.09328895  0.74131731    -0.90720
O1174       O  0.39889276  0.07093637  0.79457631    -0.93560
C1175       C  0.34588450  0.19882839  0.74843658     1.00190
C1176       C  0.40864122  0.17248399  0.84615744     1.13120
C1177       C  0.44589647  0.21756505  0.70529999     1.03900
O1178       O  0.41417159  0.14458641  0.66293329    -0.95720
O1179       O  0.41911464  0.08334944  0.67862687    -0.91460
O1180       O  0.38692646  0.03052114  0.70456043    -0.84610
C1181       C  0.40155517  0.04789568  0.68176274     1.10540
O1182       O  0.50351971  0.17523417  0.81300908    -0.97690
Zr1183     Zr  0.46030251  0.12137517  0.78549059     1.88940
O1184       O  0.41847315  0.02328628  0.75836066    -0.74340
O1185       O  0.49218939  0.14912124  0.69447960    -0.53600
O1186       O  0.52037486  0.14909231  0.76213598    -0.98280
O1187       O  0.47387711  0.10605314  0.83198906    -0.55500
O1188       O  0.47040835  0.07030111  0.77815974    -0.74860
C1189       C  0.45176968  0.03761924  0.76801501     0.97490
O1190       O  0.32481909  0.98956730  0.72790395    -0.63680
O1191       O  0.30265605  0.08991905  0.82977934    -0.58480
O1192       O  0.33988888  0.99928543  0.78513671    -0.95160
O1193       O  0.30844215  0.02253281  0.80681730    -0.93590
O1194       O  0.27294219  0.09481831  0.76168540    -0.93940
O1195       O  0.27543526  0.05595996  0.71560483    -0.92730
C1196       C  0.31099814  0.99493145  0.79769729     1.16330
H1197       H  0.33762183  0.14343372  0.79039879     0.32270
H1198       H  0.35660452  0.07376163  0.70104971     0.43130
H1199       H  0.39942525  0.05287461  0.80715565     0.36650
H1200       H  0.48119889  0.18588411  0.75187280     0.33130
H1201       H  0.29644096  0.12253270  0.68763123     0.24920
H1202       H  0.49483421  0.16041253  0.67562952     0.30860
H1203       H  0.53387550  0.13831978  0.77185202     0.36770
H1204       H  0.26187254  0.10722781  0.75084104     0.31230
H1205       H  0.29213174  0.06936714  0.84367395     0.30100
H1206       H  0.34560343  0.06418903  0.86736603     0.31780
H1207       H  0.49718272  0.10553147  0.82961114     0.30750
H1208       H  0.28152770  0.03593088  0.71663453     0.34750
H1209       H  0.30377156  0.97853083  0.74116905     0.27480
H1210       H  0.45636125  0.26243653  0.77792986     0.31720
H1211       H  0.52702005  0.17476727  0.81370956     0.34570
H1212       H  0.31321988  0.11269716  0.84124236     0.27180
H1213       H  0.31576018  0.99930778  0.71267242     0.40050
H1214       H  0.38684047  0.12851113  0.66187303     0.30100
H1215       H  0.33915117  0.14258347  0.68176372     0.37720
H1216       H  0.45469395  0.07981767  0.83531703     0.29570
H1217       H  0.50964190  0.16996918  0.70652841     0.29630
H1218       H  0.48519325  0.25051549  0.76988240     0.29900
Zr1219     Zr  0.56802332  0.80935982  0.75705420     2.17510
O1220       O  0.51586321  0.74965787  0.74282058    -0.52460
O1221       O  0.61083122  0.78719025  0.76602186    -0.75660
O1222       O  0.57082181  0.79948089  0.70600649    -0.82440
O1223       O  0.51421745  0.79123684  0.81801191    -0.84190
O1224       O  0.60426446  0.85613418  0.68468757    -0.79810
O1225       O  0.54392076  0.76629645  0.79769814    -0.91450
O1226       O  0.65755832  0.82933258  0.79369141    -0.77410
O1227       O  0.62881013  0.86052527  0.74694133    -0.86900
O1228       O  0.59477581  0.83736777  0.80144286    -0.86590
O1229       O  0.55977080  0.85246996  0.72819654    -0.73350
O1230       O  0.52706864  0.82752674  0.77791196    -0.85480
Zr1231     Zr  0.60400926  0.94693341  0.78060970     2.26420
Zr1232     Zr  0.62106685  0.90456908  0.71880738     2.06270
Zr1233     Zr  0.55521822  0.85708335  0.82167178     2.10050
Zr1234     Zr  0.65473286  0.88657254  0.79149577     1.78760
O1235       O  0.49913931  0.83744886  0.84910319    -0.94290
O1236       O  0.71028541  0.90189806  0.76470853    -0.42100
O1237       O  0.61560737  0.90779446  0.81122082    -0.78730
O1238       O  0.64735372  0.93010197  0.76335746    -0.97420
O1239       O  0.57781721  0.92080120  0.73668863    -0.90720
O1240       O  0.54438803  0.89651032  0.79183749    -0.93560
C1241       C  0.63886812  0.79709051  0.78245013     1.00190
C1242       C  0.52796492  0.77021158  0.81936102     1.13120
C1243       C  0.58428700  0.82061167  0.68400869     1.03900
O1244       O  0.67752943  0.91488176  0.69589805    -0.95720
O1245       O  0.66509166  0.97285349  0.71807836    -0.91460
O1246       O  0.63830450  0.99532168  0.74684409    -0.84610
C1247       C  0.66414258  0.00003242  0.73006931     1.10540
O1248       O  0.47132518  0.81345488  0.72400000    -0.97690
Zr1249     Zr  0.51827554  0.86889666  0.74811807     1.88940
O1250       O  0.56064553  0.96855611  0.77104488    -0.74340
O1251       O  0.60271944  0.92604890  0.67730692    -0.53600
O1252       O  0.50435270  0.88316799  0.70142389    -0.98280
O1253       O  0.45938428  0.84095927  0.77326119    -0.55500
O1254       O  0.50755837  0.91986244  0.75418339    -0.74860
C1255       C  0.52677902  0.95340845  0.76255753     0.97490
O1256       O  0.65435237  0.00235922  0.80259038    -0.63680
O1257       O  0.58459349  0.84999262  0.86402790    -0.58480
O1258       O  0.58716774  0.95973158  0.82460946    -0.95160
O1259       O  0.56348564  0.90739006  0.85160103    -0.93590
O1260       O  0.66791959  0.88074234  0.84061527    -0.93940
O1261       O  0.70914660  0.94141974  0.80999385    -0.92730
C1262       C  0.57583746  0.94208330  0.84771520     1.16330
H1263       H  0.59788177  0.82101948  0.81416307     0.32270
H1264       H  0.67191732  0.95166105  0.76222574     0.43130
H1265       H  0.52895440  0.90414834  0.80128146     0.36650
H1266       H  0.54697488  0.84123703  0.71093780     0.33130
H1267       H  0.72573173  0.89665349  0.77773732     0.24920
H1268       H  0.61869945  0.92587700  0.66210616     0.30860
H1269       H  0.48212838  0.88560996  0.70392778     0.36770
H1270       H  0.68722304  0.87359220  0.84012411     0.31230
H1271       H  0.56521166  0.84060555  0.87869195     0.30100
H1272       H  0.50671352  0.83794386  0.86892598     0.31780
H1273       H  0.44722486  0.85488723  0.76684330     0.30750
H1274       H  0.69990564  0.95820294  0.81527552     0.34750
H1275       H  0.65891999  0.99357449  0.82074023     0.27480
H1276       H  0.52719583  0.73661185  0.73360283     0.31720
H1277       H  0.44989636  0.81715806  0.72092000     0.34570
H1278       H  0.58936968  0.82947449  0.86065612     0.27180
H1279       H  0.67684882  0.00879167  0.79153222     0.40050
H1280       H  0.67968676  0.89304622  0.70115446     0.30100
H1281       H  0.70187763  0.88228910  0.75032045     0.37720
H1282       H  0.46620055  0.84836816  0.79308551     0.29570
H1283       H  0.57752782  0.90543525  0.67265827     0.29630
H1284       H  0.50344850  0.75549426  0.72744692     0.29900
Zr1285     Zr  0.41148768  0.23153248  0.52032100     2.17510
O1286       O  0.46351543  0.22393000  0.53468170    -0.52460
O1287       O  0.36812311  0.16609471  0.51382312    -0.75660
O1288       O  0.41025946  0.22060668  0.57178712    -0.82440
O1289       O  0.46458732  0.26740243  0.95909383    -0.84190
O1290       O  0.37653238  0.24319873  0.59251965    -0.79810
O1291       O  0.43515956  0.21251397  0.98008669    -0.91450
O1292       O  0.32255314  0.16095773  0.98438453    -0.77410
O1293       O  0.35088091  0.22156510  0.53059790    -0.86900
O1294       O  0.38402370  0.23185918  0.97578347    -0.86590
O1295       O  0.42016726  0.28337762  0.54797660    -0.73350
O1296       O  0.45198043  0.29041698  0.99788786    -0.85480
Zr1297     Zr  0.37522649  0.33260040  0.99456257     2.26420
Zr1298     Zr  0.35902434  0.27388897  0.55750136     2.06270
Zr1299     Zr  0.42295895  0.29112348  0.95414371     2.10050
Zr1300     Zr  0.32422475  0.22066111  0.98597966     1.78760
O1301       O  0.47845078  0.32788209  0.92592787    -0.94290
O1302       O  0.26956289  0.17951343  0.51369952    -0.42100
O1303       O  0.36286193  0.28116348  0.96508351    -0.78730
O1304       O  0.33205934  0.27216072  0.51291648    -0.97420
O1305       O  0.40226982  0.33330663  0.53835819    -0.90720
O1306       O  0.43451145  0.34194007  0.98294361    -0.93560
C1307       C  0.34103623  0.14762312  0.49673037     1.00190
C1308       C  0.45125880  0.23258128  0.95827432     1.13120
C1309       C  0.39698259  0.22832566  0.59358130     1.03900
O1310       O  0.30277354  0.22736219  0.58098911    -0.95720
O1311       O  0.31524385  0.29820760  0.55768858    -0.91460
O1312       O  0.34182935  0.34727986  0.52795978    -0.84610
C1313       C  0.31624618  0.32636222  0.54519164     1.10540
O1314       O  0.50844254  0.33222440  0.55066094    -0.97690
Zr1315     Zr  0.46147099  0.34092975  0.52661408     1.88940
O1316       O  0.41941155  0.39821251  0.00279284    -0.74340
O1317       O  0.37767552  0.31436647  0.59818659    -0.53600
O1318       O  0.47711637  0.37013898  0.57261893    -0.98280
O1319       O  0.51978725  0.37194003  0.00068627    -0.55500
O1320       O  0.47239336  0.40251043  0.51967416    -0.74860
C1321       C  0.45340096  0.41697487  0.01113257     0.97490
O1322       O  0.32451713  0.33725446  0.97265232    -0.63680
O1323       O  0.39358807  0.25324948  0.91264534    -0.58480
O1324       O  0.38999068  0.36050010  0.94961407    -0.95160
O1325       O  0.41389329  0.33246440  0.92307356    -0.93590
O1326       O  0.30995432  0.20152828  0.93714054    -0.93940
O1327       O  0.26889550  0.21966495  0.96796368    -0.92730
C1328       C  0.40117381  0.35440004  0.92660385     1.16330
H1329       H  0.38088732  0.21228628  0.96348959     0.32270
H1330       H  0.30755516  0.26907210  0.51413769     0.43130
H1331       H  0.44972460  0.36500259  0.97299462     0.36650
H1332       H  0.43337810  0.28560194  0.56521062     0.33130
H1333       H  0.25398430  0.15858772  0.50102541     0.24920
H1334       H  0.36215855  0.29817141  0.61373906     0.30860
H1335       H  0.49973919  0.39458163  0.56952683     0.36770
H1336       H  0.29139443  0.17469637  0.93802860     0.31230
H1337       H  0.41280653  0.26337184  0.89785088     0.30100
H1338       H  0.47054461  0.32047130  0.90625103     0.31780
H1339       H  0.53264274  0.39794987  0.00722881     0.30750
H1340       H  0.27763261  0.24566753  0.96231985     0.34750
H1341       H  0.31876246  0.32264376  0.95520282     0.27480
H1342       H  0.45217276  0.19979252  0.54470860     0.31720
H1343       H  0.53028309  0.35738183  0.55301673     0.34570
H1344       H  0.38941819  0.22820091  0.91672577     0.27180
H1345       H  0.30242832  0.32211876  0.98450197     0.40050
H1346       H  0.30098126  0.20338903  0.57658607     0.30100
H1347       H  0.27854667  0.16862527  0.52812111     0.37720
H1348       H  0.51262563  0.37327342  0.98102294     0.29570
H1349       H  0.40309863  0.31960323  0.60268638     0.29630
H1350       H  0.47663714  0.24276059  0.54942451     0.29900
Zr1351     Zr  0.56912302  0.76115062  0.50551637     2.17510
O1352       O  0.51868595  0.77232377  0.49365624    -0.52460
O1353       O  0.61167928  0.82668124  0.51274769    -0.75660
O1354       O  0.55502725  0.78069428  0.55053431    -0.82440
O1355       O  0.59703961  0.74397419  0.93266493    -0.84190
O1356       O  0.51875322  0.72625905  0.57122734    -0.79810
O1357       O  0.56276991  0.76565565  0.95363869    -0.91450
O1358       O  0.65264419  0.82889100  0.54552143    -0.77410
O1359       O  0.59236609  0.75474868  0.54975298    -0.86900
O1360       O  0.63144153  0.77464128  0.49662068    -0.86590
O1361       O  0.52661834  0.69932572  0.52304812    -0.73350
O1362       O  0.56630188  0.71405567  0.97608502    -0.85480
Zr1363     Zr  0.60695316  0.66035808  0.52786374     2.26420
Zr1364     Zr  0.55198606  0.69343163  0.56729894     2.06270
Zr1365     Zr  0.62764588  0.72599629  0.96756963     2.10050
Zr1366     Zr  0.65419963  0.77068127  0.54185216     1.78760
O1367       O  0.62509154  0.69550750  0.92357636    -0.94290
O1368       O  0.66919088  0.79160339  0.59031908    -0.42100
O1369       O  0.65031891  0.72237998  0.51260628    -0.78730
O1370       O  0.61469537  0.70807418  0.55984122    -0.97420
O1371       O  0.54549684  0.64725313  0.53561176    -0.90720
O1372       O  0.58430559  0.66427353  0.48294135    -0.93560
C1373       C  0.63605871  0.84345598  0.53213230     1.00190
C1374       C  0.57453746  0.75652162  0.93161362     1.13120
C1375       C  0.53728902  0.76138379  0.57224157     1.03900
O1376       O  0.57361487  0.71966357  0.61377340    -0.95720
O1377       O  0.55418943  0.64525720  0.59521976    -0.91460
O1378       O  0.58810870  0.62625964  0.57095770    -0.84610
C1379       C  0.56935909  0.62524555  0.59235590     1.10540
O1380       O  0.48146616  0.66583478  0.46292857    -0.97690
Zr1381     Zr  0.52296303  0.65340368  0.49134587     1.88940
O1382       O  0.56388128  0.59545782  0.51677868    -0.74340
O1383       O  0.49071777  0.65074902  0.58633907    -0.53600
O1384       O  0.46244250  0.62078575  0.51409975    -0.98280
O1385       O  0.50989176  0.62549726  0.94485656    -0.55500
O1386       O  0.51165913  0.59164899  0.49852273    -0.74860
C1387       C  0.53028175  0.57698605  0.50758268     0.97490
O1388       O  0.65660356  0.65479452  0.55073749    -0.63680
O1389       O  0.68159352  0.78183961  0.94947806    -0.58480
O1390       O  0.64434033  0.65122302  0.49449685    -0.95160
O1391       O  0.67383520  0.70531390  0.97032785    -0.93590
O1392       O  0.70966694  0.81302920  0.51546064    -0.93940
O1393       O  0.70780168  0.76937880  0.56115405    -0.92730
C1394       C  0.67180678  0.67539489  0.98007612     1.16330
H1395       H  0.64643194  0.79876688  0.98792513     0.32270
H1396       H  0.62504984  0.70539367  0.57734011     0.43130
H1397       H  0.58392024  0.64614852  0.97033135     0.36650
H1398       H  0.50206283  0.69594465  0.52519158     0.33130
H1399       H  0.69262320  0.81577380  0.58912563     0.24920
H1400       H  0.48907033  0.66282723  0.60362739     0.30860
H1401       H  0.44867880  0.59683286  0.50413390     0.36770
H1402       H  0.72029032  0.83681802  0.52565350     0.31230
H1403       H  0.69528358  0.77264469  0.93842598     0.30100
H1404       H  0.64185770  0.71587309  0.91077087     0.31780
H1405       H  0.48597996  0.60195141  0.94694064     0.30750
H1406       H  0.69964368  0.74267760  0.56268064     0.34750
H1407       H  0.67980232  0.67369473  0.54152753     0.27480
H1408       H  0.52765126  0.79806972  0.49982055     0.31720
H1409       H  0.45741954  0.64222173  0.46244650     0.34570
H1410       H  0.67147025  0.79185601  0.93524639     0.27180
H1411       H  0.65859752  0.66460899  0.56992069     0.40050
H1412       H  0.59381603  0.74538907  0.61022915     0.30100
H1413       H  0.65036563  0.79818530  0.59570491     0.37720
H1414       H  0.52841647  0.61765579  0.94206105     0.29570
H1415       H  0.47297989  0.65202592  0.57307240     0.29630
H1416       H  0.49865768  0.75666365  0.50704321     0.29900
Zr1417     Zr  0.22396156  0.80990502  0.50402930     2.17510
O1418       O  0.21137792  0.74779940  0.49302358    -0.52460
O1419       O  0.15872002  0.78819778  0.51129157    -0.75660
O1420       O  0.20310534  0.77612029  0.54947462    -0.82440
O1421       O  0.24140916  0.85539722  0.93074802    -0.84190
O1422       O  0.25700432  0.79301063  0.57065804    -0.79810
O1423       O  0.21778577  0.79901842  0.95243250    -0.91450
O1424       O  0.15803880  0.82734027  0.54376440    -0.77410
O1425       O  0.23064113  0.83948734  0.54781408    -0.86900
O1426       O  0.21266602  0.85994807  0.49422047    -0.86590
O1427       O  0.28531171  0.82808285  0.52185696    -0.73350
O1428       O  0.27222804  0.85386695  0.97432391    -0.85480
Zr1429     Zr  0.32804055  0.94811148  0.52535431     2.26420
Zr1430     Zr  0.29150401  0.85928353  0.56568541     2.06270
Zr1431     Zr  0.26233581  0.90451687  0.96504370     2.10050
Zr1432     Zr  0.21688610  0.88664956  0.53908258     1.78760
O1433       O  0.29586539  0.93370642  0.92193733    -0.94290
O1434       O  0.19867669  0.88111920  0.58819342    -0.42100
O1435       O  0.26640746  0.93058085  0.50983679    -0.78730
O1436       O  0.27900541  0.90851541  0.55704372    -0.97420
O1437       O  0.33908077  0.89862776  0.53421325    -0.90720
O1438       O  0.32382387  0.92160422  0.48074224    -0.93560
C1439       C  0.14269934  0.79612349  0.53075575     1.00190
C1440       C  0.22731268  0.82001571  0.93016450     1.13120
C1441       C  0.22184661  0.77704083  0.57142355     1.03900
O1442       O  0.26523240  0.85049822  0.61253118    -0.95720
O1443       O  0.33223528  0.91131676  0.59551472    -0.91460
O1444       O  0.36215000  0.96334145  0.56845598    -0.84610
C1445       C  0.35537328  0.94605670  0.59182899     1.10540
O1446       O  0.31914693  0.81552891  0.46291844    -0.97690
Zr1447     Zr  0.33267698  0.87012155  0.49018989     1.88940
O1448       O  0.39265622  0.96858879  0.51564116    -0.74340
O1449       O  0.33710655  0.84375670  0.58303136    -0.53600
O1450       O  0.36373310  0.84095767  0.51358601    -0.98280
O1451       O  0.36063148  0.88490537  0.94361141    -0.55500
O1452       O  0.39543710  0.91997425  0.49762250    -0.74860
C1453       C  0.41065997  0.95313940  0.50695420     0.97490
O1454       O  0.33500049  0.00384099  0.54747225    -0.63680
O1455       O  0.20893453  0.90516301  0.94453858    -0.58480
O1456       O  0.33829930  0.99386161  0.49022040    -0.95160
O1457       O  0.28226296  0.97114621  0.96951718    -0.93590
O1458       O  0.17488723  0.90039443  0.51277131    -0.93940
O1459       O  0.21840436  0.94153315  0.55760998    -0.92730
C1460       C  0.31306483  0.99856778  0.97861920     1.16330
H1461       H  0.18862566  0.85143310  0.98539345     0.32270
H1462       H  0.28153497  0.92171624  0.57422080     0.43130
H1463       H  0.34239378  0.93937125  0.96802811     0.36650
H1464       H  0.28782443  0.80647442  0.52445481     0.33130
H1465       H  0.17295145  0.87655637  0.58767674     0.24920
H1466       H  0.32719300  0.83150770  0.60139706     0.30860
H1467       H  0.38776610  0.85089548  0.50373213     0.36770
H1468       H  0.15112844  0.88725292  0.52314835     0.31230
H1469       H  0.21906349  0.92170601  0.92793896     0.30100
H1470       H  0.30966485  0.92078660  0.91767791     0.31780
H1471       H  0.38383096  0.88406431  0.94584065     0.30750
H1472       H  0.24518202  0.96014851  0.55922444     0.34750
H1473       H  0.31652448  0.00854240  0.53802747     0.27480
H1474       H  0.18525478  0.73125410  0.49878934     0.31720
H1475       H  0.34277765  0.81536516  0.46199371     0.34570
H1476       H  0.19323669  0.88010621  0.93655609     0.27180
H1477       H  0.32493137  0.99603424  0.56667820     0.40050
H1478       H  0.25785679  0.86952218  0.61411989     0.30100
H1479       H  0.19594122  0.85722351  0.59456685     0.37720
H1480       H  0.36919666  0.91148699  0.94049356     0.29570
H1481       H  0.33428867  0.82356178  0.57066746     0.29630
H1482       H  0.22617664  0.74285528  0.50692163     0.29900
Zr1483     Zr  0.75593350  0.18374838  0.52118867     2.17510
O1484       O  0.76315510  0.24293231  0.53547755    -0.52460
O1485       O  0.82146627  0.20713996  0.51372840    -0.75660
O1486       O  0.76808304  0.19308877  0.57236877    -0.82440
O1487       O  0.71879666  0.20111217  0.96029038    -0.84190
O1488       O  0.74588461  0.13642327  0.59344531    -0.79810
O1489       O  0.77399346  0.22719377  0.98086749    -0.91450
O1490       O  0.82662757  0.16718690  0.98461419    -0.77410
O1491       O  0.76671912  0.13352429  0.53109084    -0.86900
O1492       O  0.75497535  0.15686137  0.97649652    -0.86590
O1493       O  0.70474956  0.13935108  0.54954400    -0.73350
O1494       O  0.69592054  0.16257110  0.00021024    -0.85480
Zr1495     Zr  0.65501080  0.04559790  0.99619999     2.26420
Zr1496     Zr  0.71511821  0.08820974  0.55871088     2.06270
Zr1497     Zr  0.69501059  0.13564670  0.95586770     2.10050
Zr1498     Zr  0.76680584  0.10862120  0.98634287     1.78760
O1499       O  0.65816524  0.15506378  0.92824801    -0.94290
O1500       O  0.80837624  0.09467424  0.51330210    -0.42100
O1501       O  0.70578501  0.08585548  0.96601862    -0.78730
O1502       O  0.71601853  0.06381136  0.51396463    -0.97420
O1503       O  0.65491236  0.07055647  0.54039270    -0.90720
O1504       O  0.64477485  0.09527794  0.98540352    -0.93560
C1505       C  0.84001576  0.19889079  0.49679124     1.00190
C1506       C  0.75367475  0.22289869  0.95909972     1.13120
C1507       C  0.76065713  0.17184970  0.59428062     1.03900
O1508       O  0.76298390  0.07943401  0.58088076    -0.95720
O1509       O  0.69113964  0.02007562  0.55953623    -0.91460
O1510       O  0.64349026  0.99624599  0.52827702    -0.84610
C1511       C  0.66385124  0.99245520  0.54670137     1.10540
O1512       O  0.65393324  0.17701687  0.55256337    -0.97690
Zr1513     Zr  0.64625390  0.12174082  0.52935542     1.88940
O1514       O  0.58952679  0.02162060  0.00611587    -0.74340
O1515       O  0.67602217  0.06528409  0.60026792    -0.53600
O1516       O  0.61965540  0.10796966  0.57634257    -0.98280
O1517       O  0.61231489  0.14646104  0.00398788    -0.55500
O1518       O  0.58482478  0.06920616  0.52380853    -0.74860
C1519       C  0.57044804  0.03584097  0.01502473     0.97490
O1520       O  0.65107452  0.99236132  0.97213352    -0.63680
O1521       O  0.73153568  0.14378809  0.91377417    -0.58480
O1522       O  0.62214350  0.03290303  0.95308293    -0.95160
O1523       O  0.65230518  0.08509122  0.92612568    -0.93590
O1524       O  0.78573116  0.11523869  0.93738171    -0.93940
O1525       O  0.76741819  0.05477413  0.96784709    -0.92730
C1526       C  0.62879580  0.05063062  0.92997542     1.16330
H1527       H  0.77432119  0.17368866  0.96394741     0.32270
H1528       H  0.71939913  0.04261844  0.51516125     0.43130
H1529       H  0.62134247  0.08738881  0.97604686     0.36650
H1530       H  0.70275848  0.15004011  0.56680449     0.33130
H1531       H  0.82920738  0.10067725  0.50039509     0.24920
H1532       H  0.69286084  0.06625265  0.61544817     0.30860
H1533       H  0.59436438  0.10419378  0.57392190     0.36770
H1534       H  0.81250955  0.12334137  0.93808405     0.31230
H1535       H  0.72113100  0.15287756  0.89907521     0.30100
H1536       H  0.66432086  0.15381405  0.90840092     0.31780
H1537       H  0.59414237  0.12602656  0.99196130     0.30750
H1538       H  0.74139172  0.03763983  0.96206534     0.34750
H1539       H  0.66270509  0.00206612  0.95358810     0.27480
H1540       H  0.78755116  0.25610928  0.54512042     0.31720
H1541       H  0.62848607  0.17251349  0.55545987     0.34570
H1542       H  0.75680647  0.16474563  0.91737557     0.27180
H1543       H  0.66899429  0.98719873  0.98200489     0.40050
H1544       H  0.78654640  0.10275686  0.57707611     0.30100
H1545       H  0.81940729  0.11417237  0.52781844     0.37720
H1546       H  0.63070910  0.16465382  0.99062549     0.29570
H1547       H  0.67059123  0.08511466  0.60495229     0.29630
H1548       H  0.74460799  0.23667642  0.55052197     0.29900
Zr1549     Zr  0.80283590  0.23219403  0.77283699     2.17510
O1550       O  0.74135209  0.22188189  0.78365298    -0.52460
O1551       O  0.77869724  0.16645066  0.76613210    -0.75660
O1552       O  0.76910759  0.21212282  0.72745229    -0.82440
O1553       O  0.84818208  0.25003712  0.84640666    -0.84190
O1554       O  0.78873422  0.26622977  0.70567945    -0.79810
O1555       O  0.79202448  0.22825788  0.82472266    -0.91450
O1556       O  0.81779619  0.16366390  0.73461452    -0.77410
O1557       O  0.83282878  0.23762723  0.72925085    -0.86900
O1558       O  0.85137378  0.21882644  0.78342423    -0.86590
O1559       O  0.82322044  0.29348052  0.75375680    -0.73350
O1560       O  0.84749591  0.27995913  0.80220394    -0.85480
Zr1561     Zr  0.94262948  0.33272326  0.75209534     2.26420
Zr1562     Zr  0.85521931  0.29857483  0.71023403     2.06270
Zr1563     Zr  0.89689887  0.26824537  0.81224943     2.10050
Zr1564     Zr  0.87824507  0.22162904  0.73886473     1.78760
O1565       O  0.92581324  0.30070384  0.85567987    -0.94290
O1566       O  0.87201159  0.20285920  0.68989016    -0.42100
O1567       O  0.92340382  0.27079799  0.76784524    -0.78730
O1568       O  0.90258207  0.28390174  0.72056603    -0.97420
O1569       O  0.89470465  0.34572361  0.74194494    -0.90720
O1570       O  0.91542542  0.32965582  0.79614837    -0.93560
C1571       C  0.78629466  0.14936532  0.74733805     1.00190
C1572       C  0.81302857  0.23745071  0.84701422     1.13120
C1573       C  0.77123620  0.23104188  0.70528182     1.03900
O1574       O  0.84601381  0.26965383  0.66444620    -0.95720
O1575       O  0.90783720  0.33925614  0.67966526    -0.91460
O1576       O  0.95951165  0.35929288  0.70671859    -0.84610
C1577       C  0.94330224  0.35721769  0.68346252     1.10540
O1578       O  0.80969463  0.32825110  0.81103669    -0.97690
Zr1579     Zr  0.86519299  0.34011871  0.78555213     1.88940
O1580       O  0.96319704  0.39834344  0.75847251    -0.74340
O1581       O  0.84105504  0.34448370  0.69140067    -0.53600
O1582       O  0.83917848  0.37320327  0.76071777    -0.98280
O1583       O  0.87804407  0.36748342  0.83224882    -0.55500
O1584       O  0.91638584  0.40193854  0.77927324    -0.74860
C1585       C  0.94873077  0.41673864  0.76840027     0.97490
O1586       O  0.99908494  0.34007377  0.73066728    -0.63680
O1587       O  0.89493889  0.21328455  0.83210585    -0.58480
O1588       O  0.98663471  0.34387327  0.78894668    -0.95160
O1589       O  0.96371265  0.28792817  0.80927694    -0.93590
O1590       O  0.89048856  0.17914953  0.76594502    -0.93940
O1591       O  0.93169848  0.22014747  0.72026889    -0.92730
C1592       C  0.99130896  0.31896033  0.80071114     1.16330
H1593       H  0.84193149  0.19492822  0.79251109     0.32270
H1594       H  0.91598535  0.28568697  0.70361568     0.43130
H1595       H  0.93291071  0.34819225  0.80891905     0.36650
H1596       H  0.80214738  0.29686832  0.75089814     0.33130
H1597       H  0.86628794  0.17678565  0.69059598     0.24920
H1598       H  0.82805633  0.33381926  0.67342551     0.30860
H1599       H  0.84905678  0.39701932  0.77077016     0.36770
H1600       H  0.87664005  0.15522319  0.75595581     0.31230
H1601       H  0.91710946  0.22308774  0.84442857     0.30100
H1602       H  0.92153741  0.28086909  0.86929343     0.31780
H1603       H  0.87931791  0.39165042  0.82959894     0.30750
H1604       H  0.95211239  0.24630998  0.72069566     0.34750
H1605       H  0.01340621  0.33579433  0.74532516     0.27480
H1606       H  0.72410245  0.19599125  0.77784032     0.31720
H1607       H  0.81052948  0.35234875  0.81175155     0.34570
H1608       H  0.87365401  0.20260467  0.84521488     0.27180
H1609       H  0.99009606  0.31821990  0.71831671     0.40050
H1610       H  0.86680691  0.26480990  0.66252293     0.30100
H1611       H  0.84856924  0.20118919  0.68346087     0.37720
H1612       H  0.90391785  0.37410037  0.83657564     0.29570
H1613       H  0.82154140  0.34312391  0.70390548     0.29630
H1614       H  0.73724539  0.23724681  0.76974040     0.29900
Zr1615     Zr  0.17472912  0.76160611  0.75621813     2.17510
O1616       O  0.23411959  0.76863160  0.74240426    -0.52460
O1617       O  0.19816209  0.82679455  0.76465646    -0.75660
O1618       O  0.18532371  0.77507013  0.70507713    -0.82440
O1619       O  0.19098921  0.72409072  0.81697390    -0.84190
O1620       O  0.12902533  0.75427370  0.68372486    -0.79810
O1621       O  0.21753893  0.77945902  0.79675914    -0.91450
O1622       O  0.15715551  0.83127383  0.79317039    -0.77410
O1623       O  0.12473645  0.77280845  0.74639549    -0.86900
O1624       O  0.14632684  0.75887911  0.80066028    -0.86590
O1625       O  0.13121434  0.71158856  0.72684727    -0.73350
O1626       O  0.15490101  0.70141017  0.77689544    -0.85480
Zr1627     Zr  0.03580035  0.66023554  0.77950276     2.26420
Zr1628     Zr  0.08021196  0.72219259  0.71786842     2.06270
Zr1629     Zr  0.12492165  0.69854150  0.82072921     2.10050
Zr1630     Zr  0.09850340  0.77137087  0.79099149     1.78760
O1631       O  0.14769254  0.66648116  0.85063744    -0.94290
O1632       O  0.08425441  0.81282825  0.76438440    -0.42100
O1633       O  0.07526787  0.70985728  0.81075482    -0.78730
O1634       O  0.05438747  0.72146445  0.76245851    -0.97420
O1635       O  0.06214334  0.66162028  0.73543356    -0.90720
O1636       O  0.08555237  0.64991604  0.78991254    -0.93560
C1637       C  0.18923534  0.84488833  0.78147497     1.00190
C1638       C  0.21233197  0.75899365  0.81856540     1.13120
C1639       C  0.16443956  0.76857170  0.68305385     1.03900
O1640       O  0.07152172  0.77061553  0.69670601    -0.95720
O1641       O  0.01221606  0.69775696  0.71612618    -0.91460
O1642       O  0.98806779  0.64822748  0.74564864    -0.84610
C1643       C  0.98446284  0.66944839  0.72794560     1.10540
O1644       O  0.16972643  0.66203897  0.72372757    -0.97690
Zr1645     Zr  0.11331742  0.65279633  0.74627765     1.88940
O1646       O  0.01361442  0.59496019  0.76978387    -0.74340
O1647       O  0.05849244  0.68481071  0.67550939    -0.53600
O1648       O  0.10091327  0.62823440  0.69871967    -0.98280
O1649       O  0.13727008  0.61779421  0.77113918    -0.55500
O1650       O  0.06095270  0.59114091  0.75011592    -0.74860
C1651       C  0.02795866  0.57649439  0.75977043     0.97490
O1652       O  0.98053947  0.65484601  0.80145139    -0.63680
O1653       O  0.12843832  0.73351858  0.86262434    -0.58480
O1654       O  0.02149874  0.62756918  0.82291615    -0.95160
O1655       O  0.07525041  0.64706750  0.84709871    -0.93590
O1656       O  0.10505737  0.79010185  0.83996494    -0.93940
O1657       O  0.04429784  0.77134824  0.80968827    -0.92730
C1658       C  0.03987924  0.62637729  0.84403005     1.16330
H1659       H  0.16272388  0.77790123  0.81351651     0.32270
H1660       H  0.03312777  0.72477444  0.76108662     0.43130
H1661       H  0.07757712  0.62604000  0.79851116     0.36650
H1662       H  0.14223561  0.71006722  0.70958116     0.33130
H1663       H  0.08992797  0.83334089  0.77745774     0.24920
H1664       H  0.05962561  0.70213308  0.66067118     0.30860
H1665       H  0.09780527  0.60317874  0.70053989     0.36770
H1666       H  0.11265298  0.81671297  0.83927842     0.31230
H1667       H  0.13561073  0.72246125  0.87815633     0.30100
H1668       H  0.14211655  0.67003341  0.87014535     0.31780
H1669       H  0.11638704  0.59928462  0.78272454     0.30750
H1670       H  0.02624732  0.74489120  0.81358600     0.34750
H1671       H  0.98880444  0.66575563  0.82035446     0.27480
H1672       H  0.24771023  0.79322543  0.73308141     0.31720
H1673       H  0.16540588  0.63686225  0.72004451     0.34570
H1674       H  0.15011770  0.75868901  0.86013285     0.27180
H1675       H  0.97585214  0.67295814  0.79138494     0.40050
H1676       H  0.09510446  0.79397186  0.70031483     0.30100
H1677       H  0.10392622  0.82426521  0.74995638     0.37720
H1678       H  0.15523666  0.63546097  0.78493292     0.29570
H1679       H  0.07861347  0.67980386  0.67072419     0.29630
H1680       H  0.22805406  0.75048931  0.72713731     0.29900
Zr1681     Zr  0.80613058  0.57540533  0.51805680     2.17510
O1682       O  0.74686848  0.52130172  0.53080920    -0.52460
O1683       O  0.78179945  0.61619150  0.50855453    -0.75660
O1684       O  0.79292847  0.57677698  0.56868774    -0.82440
O1685       O  0.79343787  0.52368805  0.95675062    -0.84190
O1686       O  0.84833150  0.61233469  0.59111907    -0.79810
O1687       O  0.76508068  0.55039708  0.97665795    -0.91450
O1688       O  0.82408439  0.66459084  0.98214122    -0.77410
O1689       O  0.85502495  0.63692725  0.52895180    -0.86900
O1690       O  0.83585499  0.60349678  0.97425639    -0.86590
O1691       O  0.84889017  0.56900961  0.54862654    -0.73350
O1692       O  0.82773629  0.53685844  0.99790148    -0.85480
Zr1693     Zr  0.94646482  0.61737092  0.99820791     2.26420
Zr1694     Zr  0.89892705  0.63102775  0.55860606     2.06270
Zr1695     Zr  0.85932914  0.56662148  0.95483560     2.10050
Zr1696     Zr  0.88275546  0.66409408  0.98501676     1.78760
O1697       O  0.83924458  0.51477376  0.92270131    -0.94290
O1698       O  0.89550677  0.71864336  0.51194017    -0.42100
O1699       O  0.90792040  0.62782363  0.96588953    -0.78730
O1700       O  0.92630689  0.65853588  0.51455774    -0.97420
O1701       O  0.91845434  0.59001162  0.54157234    -0.90720
O1702       O  0.89774459  0.55706024  0.98667131    -0.93560
C1703       C  0.79148523  0.64473509  0.49275798     1.00190
C1704       C  0.77107497  0.53592690  0.95504679     1.13120
C1705       C  0.81290221  0.59098301  0.59108600     1.03900
O1706       O  0.90619709  0.68626620  0.58138740    -0.95720
O1707       O  0.96660198  0.67645527  0.56080605    -0.91460
O1708       O  0.98986112  0.64730223  0.53591931    -0.84610
C1709       C  0.99422337  0.67467470  0.55055982     1.10540
O1710       O  0.81238307  0.48149739  0.55239493    -0.97690
Zr1711     Zr  0.86851383  0.52973865  0.52960841     1.88940
O1712       O  0.96907975  0.57452483  0.00686630    -0.74340
O1713       O  0.91931708  0.61331158  0.60103553    -0.53600
O1714       O  0.88156214  0.51603947  0.57678375    -0.98280
O1715       O  0.84371647  0.47122399  0.00450990    -0.55500
O1716       O  0.92142918  0.52173062  0.52521673    -0.74860
C1717       C  0.95464697  0.54104007  0.01610508     0.97490
O1718       O  0.00311703  0.67009147  0.97965270    -0.63680
O1719       O  0.85676389  0.60095989  0.91389226    -0.58480
O1720       O  0.96355731  0.60229883  0.95508417    -0.95160
O1721       O  0.91069577  0.56645710  0.93033577    -0.93590
O1722       O  0.87732006  0.67793537  0.93598677    -0.93940
O1723       O  0.93718562  0.71984017  0.96742930    -0.92730
C1724       C  0.94607308  0.58220852  0.93405239     1.16330
H1725       H  0.81961104  0.60597821  0.96099816     0.32270
H1726       H  0.94720333  0.68342950  0.51614017     0.43130
H1727       H  0.90627257  0.54180404  0.97821100     0.36650
H1728       H  0.83715721  0.55580799  0.56569266     0.33130
H1729       H  0.88995964  0.73377425  0.49881333     0.24920
H1730       H  0.91772082  0.62873442  0.61600924     0.30860
H1731       H  0.88460103  0.49415973  0.57459524     0.36770
H1732       H  0.86990507  0.69701505  0.93660337     0.31230
H1733       H  0.85786440  0.58738423  0.89735781     0.30100
H1734       H  0.84466442  0.52574472  0.90358971     0.31780
H1735       H  0.85895985  0.46046478  0.01088048     0.30750
H1736       H  0.95541761  0.71191433  0.96346953     0.34750
H1737       H  0.99637021  0.67426674  0.96053001     0.27480
H1738       H  0.73227558  0.53141844  0.53934208     0.31720
H1739       H  0.81680558  0.46064674  0.55602096     0.34570
H1740       H  0.83140430  0.59723166  0.91342979     0.27180
H1741       H  0.00648433  0.69176334  0.99039408     0.40050
H1742       H  0.88403513  0.68758142  0.57557793     0.30100
H1743       H  0.87539014  0.70944642  0.52603125     0.37720
H1744       H  0.85092202  0.47837475  0.98467057     0.29570
H1745       H  0.89900541  0.58781234  0.60529752     0.29630
H1746       H  0.75267823  0.50939771  0.54657892     0.29900
Zr1747     Zr  0.18017277  0.42282087  0.50287139     2.17510
O1748       O  0.24206829  0.47345152  0.49133194    -0.52460
O1749       O  0.20285597  0.38005189  0.50958853    -0.75660
O1750       O  0.21409739  0.43469891  0.54830423    -0.82440
O1751       O  0.13212252  0.39529354  0.93022507    -0.84190
O1752       O  0.19779542  0.47148881  0.56950999    -0.79810
O1753       O  0.18915807  0.42918087  0.95080042    -0.91450
O1754       O  0.16432352  0.33897878  0.54233428    -0.77410
O1755       O  0.15124690  0.39925044  0.54701297    -0.86900
O1756       O  0.13010052  0.36095899  0.49378052    -0.86590
O1757       O  0.16196653  0.46529554  0.52100629    -0.73350
O1758       O  0.13501294  0.42636707  0.97406010    -0.85480
Zr1759     Zr  0.04179345  0.38615571  0.52598527     2.26420
Zr1760     Zr  0.13132735  0.43948732  0.56519449     2.06270
Zr1761     Zr  0.08430951  0.36538621  0.96541810     2.10050
Zr1762     Zr  0.10450726  0.33781380  0.53906797     1.78760
O1763       O  0.05406231  0.36924608  0.92258216    -0.94290
O1764       O  0.11206413  0.32544118  0.58806963    -0.42100
O1765       O  0.05932666  0.34255759  0.51055176    -0.78730
O1766       O  0.08233107  0.37722196  0.55719241    -0.97420
O1767       O  0.09120837  0.44722323  0.53414518    -0.90720
O1768       O  0.06747652  0.40921654  0.48108362    -0.93560
C1769       C  0.19537105  0.35548745  0.52887898     1.00190
C1770       C  0.16739189  0.41750581  0.92892784     1.13120
C1771       C  0.21355895  0.45226398  0.57025501     1.03900
O1772       O  0.14029587  0.42209674  0.61229625    -0.95720
O1773       O  0.07944793  0.42772017  0.59535326    -0.91460
O1774       O  0.02662904  0.40364698  0.56914601    -0.84610
C1775       C  0.04441302  0.41512776  0.59218625     1.10540
O1776       O  0.17354586  0.51244743  0.46226536    -0.97690
Zr1777     Zr  0.11911536  0.47008429  0.48980844     1.88940
O1778       O  0.02103918  0.43017489  0.51651622    -0.74340
O1779       O  0.14743533  0.50084973  0.58168777    -0.53600
O1780       O  0.14786096  0.53009576  0.51306031    -0.98280
O1781       O  0.10425463  0.48377352  0.94317178    -0.55500
O1782       O  0.06909174  0.48196243  0.49731438    -0.74860
C1783       C  0.03618113  0.46369189  0.50727121     0.97490
O1784       O  0.98660532  0.33646225  0.54893670    -0.63680
O1785       O  0.08431643  0.31172690  0.94577963    -0.58480
O1786       O  0.99495297  0.35042574  0.49176186    -0.95160
O1787       O  0.01745987  0.31825217  0.97023694    -0.93590
O1788       O  0.08969601  0.28214381  0.51294223    -0.93940
O1789       O  0.05054968  0.28378192  0.55905489    -0.92730
C1790       C  0.99010561  0.32111721  0.97970523     1.16330
H1791       H  0.13856165  0.34590153  0.98483074     0.32270
H1792       H  0.06946934  0.36626109  0.57457748     0.43130
H1793       H  0.04945896  0.41003849  0.96860364     0.36650
H1794       H  0.18355458  0.48964398  0.52336031     0.33130
H1795       H  0.11708290  0.30466979  0.58749698     0.24920
H1796       H  0.15926155  0.50301303  0.60023666     0.30860
H1797       H  0.13790055  0.54415972  0.50308364     0.36770
H1798       H  0.10371356  0.27194517  0.52266922     0.31230
H1799       H  0.06298990  0.30084189  0.93258946     0.30100
H1800       H  0.05895841  0.35491171  0.90854295     0.31780
H1801       H  0.10410508  0.50724913  0.94541341     0.30750
H1802       H  0.03143179  0.29112723  0.56023245     0.34750
H1803       H  0.98135021  0.31346161  0.53921401     0.27480
H1804       H  0.25885147  0.46414404  0.49690221     0.31720
H1805       H  0.17349948  0.53612034  0.46133783     0.34570
H1806       H  0.10647626  0.32216077  0.93354717     0.27180
H1807       H  0.99505609  0.33368502  0.56783244     0.40050
H1808       H  0.12232406  0.39517141  0.61376382     0.30100
H1809       H  0.13601149  0.34708857  0.59389747     0.37720
H1810       H  0.07789671  0.46487892  0.93988129     0.29570
H1811       H  0.16803682  0.51831932  0.56938935     0.29630
H1812       H  0.24703860  0.49291575  0.50524050     0.29900
Zr1813     Zr  0.22384860  0.41945337  0.75532811     2.17510
O1814       O  0.21466602  0.46973658  0.73892578    -0.52460
O1815       O  0.15865167  0.37608515  0.76406254    -0.75660
O1816       O  0.21210391  0.41515047  0.70387646    -0.82440
O1817       O  0.25996088  0.47655203  0.81519294    -0.84190
O1818       O  0.23573134  0.38164301  0.68427065    -0.79810
O1819       O  0.20488248  0.44470841  0.79470623    -0.91450
O1820       O  0.15545072  0.33237947  0.79458148    -0.77410
O1821       O  0.21487466  0.35873986  0.74763368    -0.86900
O1822       O  0.22618174  0.39563058  0.80097180    -0.86590
O1823       O  0.27543320  0.42711908  0.72750375    -0.73350
O1824       O  0.28337399  0.46223418  0.77575655    -0.85480
Zr1825     Zr  0.32799782  0.38847150  0.78310984     2.26420
Zr1826     Zr  0.26692532  0.36595220  0.72046237     2.06270
Zr1827     Zr  0.28594992  0.43701771  0.82087034     2.10050
Zr1828     Zr  0.21598360  0.33578652  0.79344476     1.78760
O1829       O  0.32428492  0.49419962  0.84663861    -0.94290
O1830       O  0.17621419  0.27904404  0.76756118    -0.42100
O1831       O  0.27694279  0.37677600  0.81286478    -0.78730
O1832       O  0.26736453  0.34331781  0.76645078    -0.97420
O1833       O  0.32678461  0.41123117  0.73781094    -0.90720
O1834       O  0.33621099  0.44808425  0.79156067    -0.93560
C1835       C  0.14115750  0.34960237  0.78189183     1.00190
C1836       C  0.22494004  0.46200014  0.81621585     1.13120
C1837       C  0.22036379  0.40165160  0.68250499     1.03900
O1838       O  0.21982049  0.30832993  0.69910156    -0.95720
O1839       O  0.29117397  0.32190461  0.72273493    -0.91460
O1840       O  0.33847951  0.34791118  0.75422102    -0.84610
C1841       C  0.31763396  0.32192098  0.73726433     1.10540
O1842       O  0.32323676  0.51589537  0.72140434    -0.97690
Zr1843     Zr  0.33359940  0.47075153  0.74660928     1.88940
O1844       O  0.39198582  0.42935749  0.76958674    -0.74340
O1845       O  0.30695461  0.38183573  0.67956306    -0.53600
O1846       O  0.35997906  0.48325770  0.69956804    -0.98280
O1847       O  0.36622126  0.53072390  0.77002706    -0.55500
O1848       O  0.39585775  0.48209438  0.75259543    -0.74860
C1849       C  0.41047294  0.46304628  0.76081849     0.97490
O1850       O  0.33458554  0.34284933  0.81099883    -0.63680
O1851       O  0.25075841  0.41022753  0.86396902    -0.58480
O1852       O  0.36491260  0.41777376  0.82353010    -0.95160
O1853       O  0.32589988  0.42558256  0.85159680    -0.93590
O1854       O  0.19806515  0.32505147  0.84272747    -0.93940
O1855       O  0.21536778  0.28251663  0.81548821    -0.92730
C1856       C  0.35328764  0.42041739  0.84743941     1.16330
H1857       H  0.20675871  0.39270280  0.81344075     0.32270
H1858       H  0.26458497  0.31896315  0.76657655     0.43130
H1859       H  0.35950917  0.46544968  0.80034601     0.36650
H1860       H  0.27719363  0.43928910  0.70981583     0.33130
H1861       H  0.15565071  0.26360782  0.78062963     0.24920
H1862       H  0.29056663  0.36522334  0.66457777     0.30860
H1863       H  0.38485853  0.50565509  0.70155978     0.36770
H1864       H  0.17105567  0.30693940  0.84255163     0.31230
H1865       H  0.26054831  0.43070759  0.87766535     0.30100
H1866       H  0.31893803  0.48722414  0.86670658     0.31780
H1867       H  0.38634503  0.53051119  0.78105243     0.30750
H1868       H  0.23210095  0.27761644  0.80401839     0.34750
H1869       H  0.36069070  0.35542668  0.81761470     0.27480
H1870       H  0.19044191  0.45744577  0.72900107     0.31720
H1871       H  0.34823125  0.53761482  0.71801027     0.34570
H1872       H  0.22489291  0.40387415  0.86019842     0.27180
H1873       H  0.31960185  0.33891046  0.82806046     0.40050
H1874       H  0.19598112  0.30728844  0.70281265     0.30100
H1875       H  0.16444984  0.28642611  0.75268365     0.37720
H1876       H  0.34855808  0.52953966  0.78434762     0.29570
H1877       H  0.31201770  0.40683042  0.67386526     0.29630
H1878       H  0.23337833  0.48243706  0.72397382     0.29900
Zr1879     Zr  0.75294073  0.57458577  0.76953689     2.17510
O1880       O  0.76223474  0.52277722  0.78052462    -0.52460
O1881       O  0.81849081  0.61592025  0.76125416    -0.75660
O1882       O  0.77091713  0.56008508  0.72404780    -0.82440
O1883       O  0.73993689  0.60353087  0.84290012    -0.84190
O1884       O  0.71607551  0.52512776  0.70336503    -0.79810
O1885       O  0.76074867  0.56919587  0.82093688    -0.91450
O1886       O  0.82129409  0.65829409  0.72954984    -0.77410
O1887       O  0.74624864  0.59848699  0.72572458    -0.86900
O1888       O  0.76798193  0.63715610  0.77878303    -0.86590
O1889       O  0.69040047  0.53318414  0.75295533    -0.73350
O1890       O  0.70713272  0.57254337  0.80031903    -0.85480
Zr1891     Zr  0.65422101  0.61550607  0.74973168     2.26420
Zr1892     Zr  0.68425210  0.55910729  0.70906595     2.06270
Zr1893     Zr  0.72065928  0.63430554  0.80905095     2.10050
Zr1894     Zr  0.76361481  0.66055685  0.73392102     1.78760
O1895       O  0.69142002  0.63188656  0.85371329    -0.94290
O1896       O  0.78347582  0.67471325  0.68512873    -0.42100
O1897       O  0.71677125  0.65778560  0.76434101    -0.78730
O1898       O  0.70052621  0.62215827  0.71670629    -0.97420
O1899       O  0.63946633  0.55373456  0.74175296    -0.90720
O1900       O  0.65829746  0.59216366  0.79440752    -0.93560
C1901       C  0.83547264  0.64094150  0.74229823     1.00190
C1902       C  0.75266142  0.58116480  0.84332835     1.13120
C1903       C  0.75128642  0.54295098  0.70233251     1.03900
O1904       O  0.70893855  0.57971199  0.66199984    -0.95720
O1905       O  0.63577786  0.56258284  0.68245763    -0.91460
O1906       O  0.61960705  0.59858781  0.70691851    -0.84610
C1907       C  0.61699565  0.57903416  0.68564174     1.10540
O1908       O  0.65776301  0.48889104  0.81426488    -0.97690
Zr1909     Zr  0.64571212  0.53050623  0.78567156     1.88940
O1910       O  0.58902656  0.57296061  0.75945200    -0.74340
O1911       O  0.63962480  0.49789228  0.69122554    -0.53600
O1912       O  0.61208935  0.46963690  0.76380352    -0.98280
O1913       O  0.61738522  0.51806807  0.83209378    -0.55500
O1914       O  0.58431113  0.52050160  0.77795926    -0.74860
C1915       C  0.57011924  0.53936797  0.76841164     0.97490
O1916       O  0.64991380  0.66685526  0.72883872    -0.63680
O1917       O  0.77727335  0.68779638  0.82654976    -0.58480
O1918       O  0.64514950  0.65030962  0.78525437    -0.95160
O1919       O  0.70084760  0.68117662  0.80681526    -0.93590
O1920       O  0.80725028  0.71586372  0.75970862    -0.93940
O1921       O  0.76285428  0.71448596  0.71483597    -0.92730
C1922       C  0.67021780  0.67862533  0.79821160     1.16330
H1923       H  0.79235346  0.65168544  0.78709868     0.32270
H1924       H  0.69769070  0.63274010  0.69936644     0.43130
H1925       H  0.64055106  0.59199934  0.80743448     0.36650
H1926       H  0.68649984  0.50852447  0.75053058     0.33130
H1927       H  0.80803654  0.69773784  0.68594336     0.24920
H1928       H  0.65064815  0.49563208  0.67354048     0.30860
H1929       H  0.58803978  0.45653069  0.77380665     0.36770
H1930       H  0.83060945  0.72645188  0.74884852     0.31230
H1931       H  0.76850726  0.70111102  0.83848249     0.30100
H1932       H  0.71229488  0.64768645  0.86645148     0.31780
H1933       H  0.59410696  0.49388291  0.83023573     0.30750
H1934       H  0.73622311  0.70696758  0.71419345     0.34750
H1935       H  0.66949526  0.68938439  0.73826280     0.27480
H1936       H  0.78789174  0.53116937  0.77427018     0.31720
H1937       H  0.63383151  0.46520478  0.81533747     0.34570
H1938       H  0.78796563  0.67740428  0.83996396     0.27180
H1939       H  0.65921479  0.66925305  0.70941216     0.40050
H1940       H  0.73499077  0.59955962  0.66495613     0.30100
H1941       H  0.78923938  0.65537540  0.67961280     0.37720
H1942       H  0.60894900  0.53619076  0.83438190     0.29570
H1943       H  0.64115400  0.48018973  0.70437422     0.29630
H1944       H  0.74618946  0.50327308  0.76697481     0.29900
C1945       C  0.46924723  0.46476263  0.77427725    -0.14470
C1946       C  0.45135547  0.48188737  0.76138058     0.07680
C1947       C  0.47284249  0.51831473  0.75095115    -0.14470
C1948       C  0.51142171  0.53731695  0.75359099    -0.14470
C1949       C  0.52925811  0.52027961  0.76674514     0.07680
C1950       C  0.50775158  0.48375252  0.77695950    -0.14470
H1951       H  0.45350862  0.43687975  0.78275353     0.11660
H1952       H  0.45986847  0.53234543  0.74095073     0.11660
H1953       H  0.52722437  0.56524111  0.74520080     0.11660
H1954       H  0.52061878  0.46968499  0.78706847     0.11660
C1955       C  0.22212015  0.46259966  0.62222086    -0.14470
C1956       C  0.22190157  0.44257479  0.59848296     0.07680
C1957       C  0.22090480  0.40874287  0.60278806    -0.14470
C1958       C  0.21870261  0.39465505  0.62999824    -0.14470
C1959       C  0.21722300  0.41389185  0.65366573     0.07680
C1960       C  0.21948998  0.44831322  0.64940180    -0.14470
H1961       H  0.22256385  0.48862806  0.61971629     0.11660
H1962       H  0.22008751  0.39226043  0.58510540     0.11660
H1963       H  0.21798677  0.36849655  0.63250798     0.11660
H1964       H  0.21984958  0.46456354  0.66711703     0.11660
C1965       C  0.21728798  0.46283910  0.89555719    -0.14470
C1966       C  0.18211955  0.43146807  0.90008186     0.07680
C1967       C  0.15911584  0.41458965  0.87645187    -0.14470
C1968       C  0.17162027  0.42713009  0.84914993    -0.14470
C1969       C  0.20769082  0.45681735  0.84446937     0.07680
C1970       C  0.22985903  0.47544411  0.86808479    -0.14470
H1971       H  0.23533930  0.47720832  0.91315661     0.11660
H1972       H  0.13150019  0.39077287  0.87891031     0.11660
H1973       H  0.15388567  0.41182836  0.83166638     0.11660
H1974       H  0.25789011  0.49841698  0.86528639     0.11660
C1975       C  0.96255314  0.48675651  0.52683060    -0.14470
C1976       C  0.97672097  0.52238429  0.51499216     0.07680
C1977       C  0.01041419  0.53837039  0.00037134    -0.14470
C1978       C  0.02940262  0.51902836  0.99746035    -0.14470
C1979       C  0.01507517  0.48329073  0.50909976     0.07680
C1980       C  0.98148458  0.46743498  0.52389814    -0.14470
H1981       H  0.93656605  0.47352966  0.53822499     0.11660
H1982       H  0.02184974  0.56555774  0.99074831     0.11660
H1983       H  0.05535552  0.53214620  0.98602424     0.11660
H1984       H  0.96989630  0.44018425  0.53343723     0.11660
C1985       C  0.74867126  0.56816191  0.92275811    -0.14470
C1986       C  0.75941821  0.54154652  0.92661004     0.07680
C1987       C  0.76620398  0.52639073  0.90254521    -0.14470
C1988       C  0.76440139  0.53915338  0.87544727    -0.14470
C1989       C  0.75555258  0.56725349  0.87176738     0.07680
C1990       C  0.74688730  0.58086738  0.89585062    -0.14470
H1991       H  0.74363144  0.58081872  0.94064838     0.11660
H1992       H  0.77433853  0.50565301  0.90471159     0.11660
H1993       H  0.77036859  0.52735753  0.85747298     0.11660
H1994       H  0.73931004  0.60208228  0.89408496     0.11660
C1995       C  0.81709271  0.59674352  0.64348653    -0.14470
C1996       C  0.79572903  0.57914142  0.61937221     0.07680
C1997       C  0.76084929  0.54703928  0.62301388    -0.14470
C1998       C  0.74752621  0.53337518  0.65006647    -0.14470
C1999       C  0.76875032  0.55148506  0.67411973     0.07680
C2000       C  0.80391237  0.58302624  0.67038041    -0.14470
H2001       H  0.84435701  0.62125466  0.64164871     0.11660
H2002       H  0.74407216  0.53219716  0.60499195     0.11660
H2003       H  0.72002798  0.50927459  0.65218927     0.11660
H2004       H  0.82071196  0.59817053  0.68828612     0.11660
C2005       C  0.03204275  0.60745566  0.89416593    -0.14470
C2006       C  0.01757353  0.60142055  0.86688933     0.07680
C2007       C  0.97910105  0.57776348  0.86271487    -0.14470
C2008       C  0.95494642  0.56719206  0.88537294    -0.14470
C2009       C  0.96930857  0.57950915  0.91228739     0.07680
C2010       C  0.00791135  0.59621683  0.91686319    -0.14470
H2011       H  0.06161362  0.62456969  0.89798580     0.11660
H2012       H  0.96729486  0.57125936  0.84175786     0.11660
H2013       H  0.92531357  0.55309474  0.88138783     0.11660
H2014       H  0.01974019  0.60449423  0.93770187     0.11660
C2015       C  0.91630323  0.62574091  0.73045511    -0.14470
C2016       C  0.94567173  0.66149086  0.72383885     0.07680
C2017       C  0.93756750  0.69019279  0.72012913    -0.14470
C2018       C  0.90139427  0.68365269  0.72500944    -0.14470
C2019       C  0.87306851  0.64850786  0.73414076     0.07680
C2020       C  0.88073935  0.61944680  0.73575308    -0.14470
H2021       H  0.92135778  0.60288693  0.73332133     0.11660
H2022       H  0.95961117  0.71813621  0.71541409     0.11660
H2023       H  0.89610837  0.70644933  0.72316294     0.11660
H2024       H  0.85928446  0.59176728  0.74183302     0.11660
C2025       C  0.98856388  0.40933999  0.61618919    -0.14470
C2026       C  0.02166769  0.40798754  0.61713228     0.07680
C2027       C  0.02844738  0.39074539  0.63973512    -0.14470
C2028       C  0.00222313  0.37395422  0.66060581    -0.14470
C2029       C  0.96893068  0.37480637  0.65991521     0.07680
C2030       C  0.96225514  0.39294154  0.63769961    -0.14470
H2031       H  0.98258865  0.42185088  0.59837555     0.11660
H2032       H  0.05289255  0.38789866  0.64029719     0.11660
H2033       H  0.00778966  0.35940212  0.67708775     0.11660
H2034       H  0.93687902  0.39406252  0.63686936     0.11660
C2035       C  0.03869032  0.29774585  0.80350192    -0.14470
C2036       C  0.03027547  0.32641635  0.80160357     0.07680
C2037       C  0.05927106  0.36249838  0.79523563    -0.14470
C2038       C  0.09471918  0.36934014  0.78884926    -0.14470
C2039       C  0.10290688  0.34062281  0.78934699     0.07680
C2040       C  0.07490547  0.30491126  0.79774674    -0.14470
H2041       H  0.01700785  0.26960107  0.80809611     0.11660
H2042       H  0.05417184  0.38545478  0.79376839     0.11660
H2043       H  0.11586346  0.39739232  0.78332087     0.11660
H2044       H  0.08061423  0.28234517  0.79875338     0.11660
C2045       C  0.95687929  0.47848079  0.78082517    -0.14470
C2046       C  0.96957921  0.45767120  0.76645324     0.07680
C2047       C  0.00064626  0.47621247  0.74893142    -0.14470
C2048       C  0.01877115  0.51473102  0.74601783    -0.14470
C2049       C  0.00624897  0.53554778  0.76059149     0.07680
C2050       C  0.97499315  0.51697379  0.77791320    -0.14470
H2051       H  0.93291236  0.46503927  0.79447206     0.11660
H2052       H  0.01075183  0.46096859  0.73725965     0.11660
H2053       H  0.04286051  0.52824061  0.73249465     0.11660
H2054       H  0.96500925  0.53221598  0.78973121     0.11660
C2055       C  0.80754578  0.24315155  0.92655297    -0.14470
C2056       C  0.77087987  0.23489685  0.93072796     0.07680
C2057       C  0.74857326  0.22985744  0.90678998    -0.14470
C2058       C  0.76172894  0.23036848  0.87954932    -0.14470
C2059       C  0.79762627  0.23616303  0.87557412     0.07680
C2060       C  0.82060859  0.24358999  0.89949531    -0.14470
H2061       H  0.82547241  0.24682082  0.94430759     0.11660
H2062       H  0.72014891  0.22347126  0.90920377     0.11660
H2063       H  0.74359230  0.22556555  0.86172115     0.11660
H2064       H  0.84874045  0.24891048  0.89750246     0.11660
C2065       C  0.76204493  0.16667980  0.64678336    -0.14470
C2066       C  0.76458924  0.18778950  0.62272677     0.07680
C2067       C  0.76464810  0.22116552  0.62630465    -0.14470
C2068       C  0.76318937  0.23354872  0.65324512    -0.14470
C2069       C  0.76203356  0.21307852  0.67732129     0.07680
C2070       C  0.76075749  0.17913240  0.67368821    -0.14470
H2071       H  0.76114792  0.14041924  0.64484429     0.11660
H2072       H  0.76533077  0.23751142  0.60827457     0.11660
H2073       H  0.76458956  0.26003521  0.65529213     0.11660
H2074       H  0.76056169  0.16297784  0.69166653     0.11660
C2075       C  0.90628788  0.22245535  0.98036069    -0.14470
C2076       C  0.87831576  0.22908191  0.99007706     0.07680
C2077       C  0.88687496  0.26605039  0.49273327    -0.14470
C2078       C  0.92240359  0.29547041  0.48718714    -0.14470
C2079       C  0.95114229  0.28920079  0.97917491     0.07680
C2080       C  0.94254715  0.25229027  0.97520977    -0.14470
H2081       H  0.90048310  0.19430495  0.97767106     0.11660
H2082       H  0.86588146  0.27237927  0.49931325     0.11660
H2083       H  0.92755327  0.32334207  0.49028276     0.11660
H2084       H  0.96407338  0.24643875  0.96926791     0.11660
C2085       C  0.50836398  0.02769770  0.52551535    -0.14470
C2086       C  0.52969367  0.01352840  0.51411654     0.07680
C2087       C  0.51135437  0.97933824  0.00021833    -0.14470
C2088       C  0.47272323  0.95997448  0.99755386    -0.14470
C2089       C  0.45163489  0.97435999  0.50869237     0.07680
C2090       C  0.46983023  0.00837715  0.52281148    -0.14470
H2091       H  0.52143545  0.05399922  0.53637168     0.11660
H2092       H  0.52698235  0.96782372  0.99101331     0.11660
H2093       H  0.45951271  0.93368607  0.98668189     0.11660
H2094       H  0.45431999  0.02005441  0.53196677     0.11660
C2095       C  0.21265716  0.77052791  0.65061006    -0.14470
C2096       C  0.18046027  0.77270609  0.65455291     0.07680
C2097       C  0.15984581  0.77189277  0.63067000    -0.14470
C2098       C  0.17153745  0.76989015  0.60362482    -0.14470
C2099       C  0.20425432  0.76874169  0.59960231     0.07680
C2100       C  0.22430122  0.76838731  0.62349020    -0.14470
H2101       H  0.22850536  0.76980178  0.66849173     0.11660
H2102       H  0.13444819  0.77273870  0.63287052     0.11660
H2103       H  0.15580481  0.77097952  0.58584094     0.11660
H2104       H  0.24991224  0.76798316  0.62115498     0.11660
C2105       C  0.23195280  0.82644255  0.87755998    -0.14470
C2106       C  0.22463396  0.80392887  0.90171914     0.07680
C2107       C  0.21798413  0.76769831  0.89816232    -0.14470
C2108       C  0.21721214  0.75400892  0.87113258    -0.14470
C2109       C  0.22280640  0.77608362  0.84698264     0.07680
C2110       C  0.23117473  0.81280635  0.85069401    -0.14470
H2111       H  0.23775955  0.85471927  0.87926868     0.11660
H2112       H  0.21317068  0.74986128  0.91620563     0.11660
H2113       H  0.21084477  0.72561512  0.86907990     0.11660
H2114       H  0.23516848  0.83052326  0.83272803     0.11660
C2115       C  0.09746689  0.72932737  0.53903581    -0.14470
C2116       C  0.10516731  0.76612899  0.53956525     0.07680
C2117       C  0.07722572  0.77303543  0.54882203    -0.14470
C2118       C  0.04131076  0.74329250  0.55501495    -0.14470
C2119       C  0.03315374  0.70630142  0.55265223     0.07680
C2120       C  0.06227316  0.69999672  0.54577007    -0.14470
H2121       H  0.11869276  0.72308928  0.53292520     0.11660
H2122       H  0.08260548  0.80121553  0.54989495     0.11660
H2123       H  0.01949397  0.74917259  0.55991826     0.11660
H2124       H  0.05730654  0.67201401  0.54392520     0.11660
C2125       C  0.55966732  0.60748593  0.64300817    -0.14470
C2126       C  0.56845271  0.60164943  0.61591547     0.07680
C2127       C  0.58388813  0.57871041  0.61243597    -0.14470
C2128       C  0.59621642  0.56732872  0.63566453    -0.14470
C2129       C  0.59285472  0.57842969  0.66261564     0.07680
C2130       C  0.57164990  0.59576649  0.66625006    -0.14470
H2131       H  0.54702105  0.62429269  0.64635367     0.11660
H2132       H  0.58989557  0.57266499  0.59170287     0.11660
H2133       H  0.61156565  0.55314578  0.63224559     0.11660
H2134       H  0.56746204  0.60358615  0.68693404     0.11660
C2135       C  0.74035387  0.69716659  0.97541562    -0.14470
C2136       C  0.70309634  0.66818795  0.97685606     0.07680
C2137       C  0.69593887  0.63173651  0.98075759    -0.14470
C2138       C  0.72482898  0.62461459  0.48530409    -0.14470
C2139       C  0.76194627  0.65359919  0.98571129     0.07680
C2140       C  0.76961734  0.68987185  0.97961746    -0.14470
H2141       H  0.74680225  0.72558333  0.97273051     0.11660
H2142       H  0.66769264  0.60862904  0.48176408     0.11660
H2143       H  0.71791885  0.59621154  0.48907976     0.11660
H2144       H  0.79802417  0.71271359  0.97944451     0.11660
C2145       C  0.61454419  0.88890328  0.53768418    -0.14470
C2146       C  0.64353097  0.88113281  0.54006763     0.07680
C2147       C  0.67834208  0.90935845  0.54989411    -0.14470
C2148       C  0.68465342  0.94544243  0.55480281    -0.14470
C2149       C  0.65602602  0.95360105  0.55048774     0.07680
C2150       C  0.62057505  0.92432118  0.54303199    -0.14470
H2151       H  0.58707959  0.86759571  0.53105014     0.11660
H2152       H  0.70109790  0.90406305  0.55235068     0.11660
H2153       H  0.71240615  0.96737975  0.56013009     0.11660
H2154       H  0.59775116  0.92934242  0.53964051     0.11660
C2155       C  0.29199654  0.36983808  0.53934072    -0.14470
C2156       C  0.28538510  0.33462438  0.54787816     0.07680
C2157       C  0.24828988  0.30654990  0.55267060    -0.14470
C2158       C  0.21866037  0.31314794  0.54739804    -0.14470
C2159       C  0.22559891  0.34767876  0.53669487     0.07680
C2160       C  0.26272099  0.37612556  0.53363358    -0.14470
H2161       H  0.32005244  0.39230815  0.53554755     0.11660
H2162       H  0.24205503  0.27897961  0.55885103     0.11660
H2163       H  0.19036340  0.29080512  0.55042008     0.11660
H2164       H  0.26925521  0.40340610  0.52631918     0.11660
C2165       C  0.35461173  0.35453880  0.89731531    -0.14470
C2166       C  0.39256010  0.37003396  0.90275695     0.07680
C2167       C  0.41825210  0.40494165  0.89189343    -0.14470
C2168       C  0.40560806  0.42376454  0.87486407    -0.14470
C2169       C  0.36727917  0.40861183  0.87057228     0.07680
C2170       C  0.34195416  0.37421633  0.88213767    -0.14470
H2171       H  0.33452761  0.32783152  0.90612842     0.11660
H2172       H  0.44751712  0.41764373  0.89696601     0.11660
H2173       H  0.42539861  0.44971946  0.86492113     0.11660
H2174       H  0.31243080  0.36144576  0.87786576     0.11660
C2175       C  0.51082361  0.47879937  0.51707490    -0.14470
C2176       C  0.47270334  0.45786645  0.51035128     0.07680
C2177       C  0.45392755  0.47646684  0.50237780    -0.14470
C2178       C  0.47282472  0.51512650  0.50120130    -0.14470
C2179       C  0.51093076  0.53604154  0.50796474     0.07680
C2180       C  0.52969816  0.51743276  0.51592535    -0.14470
H2181       H  0.52628593  0.46537593  0.52317399     0.11660
H2182       H  0.42465638  0.46121065  0.49705511     0.11660
H2183       H  0.45738373  0.52859338  0.49516182     0.11660
H2184       H  0.55894928  0.53266798  0.52131717     0.11660
C2185       C  0.29784548  0.08157035  0.97989906    -0.14470
C2186       C  0.33268211  0.10949568  0.98991011     0.07680
C2187       C  0.36143228  0.10128055  0.49274334    -0.14470
C2188       C  0.35536024  0.06606386  0.48691908    -0.14470
C2189       C  0.32002060  0.03731218  0.97844961     0.07680
C2190       C  0.29144011  0.04560588  0.97448567    -0.14470
H2191       H  0.27534051  0.08718744  0.97714600     0.11660
H2192       H  0.38892678  0.12228418  0.49957267     0.11660
H2193       H  0.37827632  0.06114466  0.49008984     0.11660
H2194       H  0.26389592  0.02406401  0.96828894     0.11660
C2195       C  0.56148535  0.97764273  0.88182090    -0.14470
C2196       C  0.58521233  0.96589914  0.87153962     0.07680
C2197       C  0.62293878  0.98482716  0.87840176    -0.14470
C2198       C  0.63742917  0.01598754  0.89481624    -0.14470
C2199       C  0.61396905  0.02732175  0.90593533     0.07680
C2200       C  0.57578016  0.00785791  0.90003366    -0.14470
H2201       H  0.53250353  0.96376924  0.87566288     0.11660
H2202       H  0.64155411  0.97631410  0.86997884     0.11660
H2203       H  0.66669459  0.02994611  0.90032895     0.11660
H2204       H  0.55736926  0.01573954  0.90969823     0.11660
C2205       C  0.68926575  0.06799085  0.73544105    -0.14470
C2206       C  0.69545595  0.03917649  0.72744182     0.07680
C2207       C  0.73245575  0.04783092  0.72342428    -0.14470
C2208       C  0.76237384  0.08387118  0.72899812    -0.14470
C2209       C  0.75578400  0.11160857  0.73922021     0.07680
C2210       C  0.71881905  0.10337237  0.74145195    -0.14470
H2211       H  0.66128368  0.06265243  0.73863137     0.11660
H2212       H  0.73833219  0.02629232  0.71767823     0.11660
H2213       H  0.79057042  0.08952503  0.72661087     0.11660
H2214       H  0.71261520  0.12429480  0.74836432     0.11660
C2215       C  0.57562784  0.75066636  0.87915408    -0.14470
C2216       C  0.56015120  0.75770050  0.90295974     0.07680
C2217       C  0.52968662  0.76292376  0.89884786    -0.14470
C2218       C  0.51656424  0.76320706  0.87157820    -0.14470
C2219       C  0.53372991  0.75852406  0.84775384     0.07680
C2220       C  0.56255917  0.75093738  0.85205308    -0.14470
H2221       H  0.59869545  0.74579123  0.88129343     0.11660
H2222       H  0.51639376  0.76739980  0.91660748     0.11660
H2223       H  0.49424491  0.76913430  0.86906110     0.11660
H2224       H  0.57676621  0.74763341  0.83437256     0.11660
C2225       C  0.54039882  0.76998191  0.65148970    -0.14470
C2226       C  0.57291862  0.80436381  0.65548405     0.07680
C2227       C  0.59120040  0.82603989  0.63160953    -0.14470
C2228       C  0.57782689  0.81342452  0.60453497    -0.14470
C2229       C  0.54582360  0.77868920  0.60047803     0.07680
C2230       C  0.52694503  0.75737903  0.62434271    -0.14470
H2231       H  0.52499130  0.75306412  0.66933826     0.11660
H2232       H  0.61600400  0.85299341  0.63381666     0.11660
H2233       H  0.59350897  0.83026956  0.58676468     0.11660
H2234       H  0.50241236  0.73025734  0.62200356     0.11660
C2235       C  0.68469974  0.77620217  0.79579716    -0.14470
C2236       C  0.64820328  0.76812188  0.78992238     0.07680
C2237       C  0.61924698  0.73111764  0.79151579    -0.14470
C2238       C  0.62653080  0.70264241  0.79715324    -0.14470
C2239       C  0.66316285  0.71002223  0.80074412     0.07680
C2240       C  0.69219948  0.74726821  0.80089529    -0.14470
H2241       H  0.70749749  0.80459287  0.79512046     0.11660
H2242       H  0.59070742  0.72400375  0.78794255     0.11660
H2243       H  0.60337460  0.67439965  0.79716271     0.11660
H2244       H  0.72073779  0.75386584  0.80329778     0.11660
C2245       C  0.41920417  0.02375502  0.63989517    -0.14470
C2246       C  0.39246198  0.02373017  0.65755581     0.07680
C2247       C  0.35490602  0.99682953  0.65424890    -0.14470
C2248       C  0.34394539  0.96951789  0.63429508    -0.14470
C2249       C  0.37016092  0.96927317  0.61646417     0.07680
C2250       C  0.40787429  0.99674374  0.61890728    -0.14470
H2251       H  0.44834390  0.04421583  0.64241912     0.11660
H2252       H  0.33381188  0.99691973  0.66726436     0.11660
H2253       H  0.31456424  0.94971728  0.63173733     0.11660
H2254       H  0.42815407  0.99748520  0.60443834     0.11660
C2255       C  0.24193942  0.94785710  0.80137503    -0.14470
C2256       C  0.27904611  0.95608865  0.79919243     0.07680
C2257       C  0.28552824  0.92687095  0.79335549    -0.14470
C2258       C  0.25623918  0.89124845  0.78794328    -0.14470
C2259       C  0.21922632  0.88317882  0.78862993     0.07680
C2260       C  0.21221919  0.91155494  0.79638901    -0.14470
H2261       H  0.23592605  0.96972810  0.80555404     0.11660
H2262       H  0.31357932  0.93184053  0.79169632     0.11660
H2263       H  0.26272830  0.86991111  0.78287995     0.11660
H2264       H  0.18394836  0.90605482  0.79746151     0.11660
C2265       C  0.50833682  0.03203807  0.77459731    -0.14470
C2266       C  0.47066869  0.01577656  0.76682535     0.07680
C2267       C  0.45191260  0.97913577  0.75710537    -0.14470
C2268       C  0.47034700  0.95913986  0.75533789    -0.14470
C2269       C  0.50797922  0.97536937  0.76320485     0.07680
C2270       C  0.52677388  0.01206987  0.77279751    -0.14470
H2271       H  0.52376777  0.06034931  0.78200376     0.11660
H2272       H  0.42298384  0.96585421  0.75086623     0.11660
H2273       H  0.45492938  0.93081317  0.74796429     0.11660
H2274       H  0.55567992  0.02535340  0.77910181     0.11660
C2275       C  0.40380396  0.22717701  0.67309154    -0.14470
C2276       C  0.43709685  0.22700232  0.67721883     0.08400
C2277       C  0.45704584  0.22707778  0.65341971    -0.14470
C2278       C  0.44317047  0.22560260  0.62625497    -0.14470
C2279       C  0.40921725  0.22447249  0.62218859     0.07680
C2280       C  0.39006578  0.22591967  0.64597348    -0.14470
H2281       H  0.38734278  0.22641288  0.69083893     0.11660
H2282       H  0.48263416  0.22656413  0.65585065     0.11660
H2283       H  0.45927358  0.22582981  0.60844005     0.11660
H2284       H  0.36419161  0.22589895  0.64364675     0.11660
C2285       C  0.40629842  0.16498254  0.89876211    -0.14470
C2286       C  0.42219449  0.18788245  0.87487058     0.07680
C2287       C  0.45201689  0.22405465  0.87901925    -0.14470
C2288       C  0.46410533  0.23750514  0.90632625    -0.14470
C2289       C  0.44651147  0.21524165  0.93017414     0.07680
C2290       C  0.41831850  0.17839256  0.92593696    -0.14470
H2291       H  0.38367036  0.13668657  0.89660703     0.11660
H2292       H  0.46556818  0.24218194  0.86123807     0.11660
H2293       H  0.48596894  0.26607907  0.90879546     0.11660
H2294       H  0.40381107  0.16054017  0.94364608     0.11660
C2295       C  0.34584069  0.25473166  0.76560540    -0.14470
C2296       C  0.33537618  0.22797734  0.74462990     0.07680
C2297       C  0.31779490  0.23160370  0.72023210    -0.14470
C2298       C  0.31152115  0.26186129  0.71705487    -0.14470
C2299       C  0.32340035  0.28921477  0.73800901     0.07680
C2300       C  0.34030049  0.28461600  0.76227685    -0.14470
H2301       H  0.35898931  0.25299692  0.78482542     0.11660
H2302       H  0.30957816  0.21155788  0.70349576     0.11660
H2303       H  0.29807334  0.26414828  0.69821973     0.11660
H2304       H  0.34941589  0.30422793  0.77929015     0.11660
loop_ 
_geom_bond_atom_site_label_1 
_geom_bond_atom_site_label_2 
_geom_bond_distance 
_geom_bond_site_symmetry_2 
_ccdc_geom_bond_type 
Zr1           O2   2.434       .  S
Zr1           O3   2.419       .  S
Zr1           O4   2.480       .  S
Zr1           O7   2.495       .  S
Zr1           O9   2.378       .  S
Zr1          O10   2.402       .  S
Zr1          O11   2.421       .  S
Zr1          O12   2.383       .  S
O2           H58   0.990       .  S
O2           H66   0.990       .  S
O3           C23   1.286       .  A
O4           C25   1.289       .  A
O5          Zr15   2.420       .  S
O5           C24   1.285       .  A
O6          Zr14   2.404       .  S
O6           C25   1.269       .  A
O7           C24   1.300       .  A
O8          Zr16   2.471       .  S
O8           C23   1.289       .  A
O9          Zr14   2.395       .  S
O9          Zr16   2.346       .  S
O10         Zr15   2.406       .  S
O10         Zr16   2.383       .  S
O10          H45   0.966       .  S
O11         Zr14   2.416       .  S
O11         Zr31   2.395       .  S
O11          H48   0.966       .  S
O12         Zr15   2.388       .  S
O12         Zr31   2.366       .  S
Zr13         O38   2.446   1_545  S
Zr13         O32   2.436       .  S
Zr13         O40   2.404   1_545  S
Zr13         O28   2.375       .  S
Zr13         O19   2.399       .  S
Zr13         O20   2.404       .  S
Zr13         O21   2.369       .  S
Zr13         O22   2.366       .  S
Zr14         O33   2.435       .  S
Zr14         O26   2.434       .  S
Zr14         O27   2.448       .  S
Zr14         O20   2.395       .  S
Zr14         O21   2.369       .  S
Zr15         O17   2.435       .  S
Zr15         O39   2.437       .  S
Zr15         O41   2.478       .  S
Zr15         O19   2.372       .  S
Zr15         O22   2.392       .  S
Zr16         O42   2.434       .  S
Zr16         O43   2.435       .  S
Zr16         O18   2.437       .  S
Zr16         O19   2.403       .  S
Zr16         O20   2.418       .  S
O17          H54   0.990       .  S
O18          H49   0.990       .  S
O18          H63   0.990       .  S
O20          H46   0.966       .  S
O21         Zr31   2.369       .  S
O22         Zr31   2.395       .  S
O22          H47   0.967       .  S
C23        C1144   1.496       .  S
C24        C1134   1.496       .  S
C25        C1124   1.485       .  S
O26          H62   0.990       .  S
O27          C29   1.286       .  A
O28          C29   1.275       .  A
C29        C1094   1.455       .  S
O30         Zr31   2.439       .  S
O30          H59   0.990       .  S
Zr31         O34   2.438       .  S
Zr31         O35   2.439       .  S
Zr31         O36   2.403       .  S
O32          C37   1.286       .  A
O33          H50   0.990       .  S
O33          H65   0.990       .  S
O34          H51   0.990       .  S
O35          H55   0.990       .  S
O35          H64   0.990       .  S
O36          C37   1.279       .  A
C37        C1114   1.478       .  S
O38          H57   0.988       .  S
O38          H61   0.989       .  S
O39          H53   0.990       .  S
O39          H60   0.990       .  S
O40          C44   1.277       .  A
O41          C44   1.290   1_545  A
O42          H52   0.990       .  S
O43          H56   0.990       .  S
C44        C1104   1.493       .  S
Zr67         O68   2.437       .  S
Zr67         O69   2.423       .  S
Zr67         O70   2.483       .  S
Zr67         O73   2.475       .  S
Zr67         O75   2.399       .  S
Zr67         O76   2.402       .  S
Zr67         O77   2.412       .  S
Zr67         O78   2.414       .  S
O68         H124   0.990       .  S
O68         H132   0.990       .  S
O69          C89   1.286       .  A
O70          C91   1.297       .  A
O71         Zr81   2.403       .  S
O71          C90   1.269       .  A
O72         Zr80   2.416       .  S
O72          C91   1.284       .  A
O73          C90   1.287       .  A
O74         Zr82   2.453       .  S
O74          C89   1.286       .  A
O75         Zr80   2.414       .  S
O75         Zr82   2.382       .  S
O76         Zr81   2.395       .  S
O76         Zr82   2.348       .  S
O76         H111   0.964       .  S
O77         Zr80   2.419       .  S
O77         Zr97   2.367       .  S
O77         H114   0.963       .  S
O78         Zr81   2.406       .  S
O78         Zr97   2.390       .  S
Zr79        O104   2.443   1_565  S
Zr79         O98   2.433       .  S
Zr79        O106   2.365       .  S
Zr79         O94   2.402       .  S
Zr79         O85   2.402       .  S
Zr79         O86   2.398       .  S
Zr79         O87   2.358       .  S
Zr79         O88   2.370       .  S
Zr80         O99   2.434       .  S
Zr80         O92   2.434       .  S
Zr80         O93   2.493       .  S
Zr80         O86   2.380       .  S
Zr80         O87   2.389       .  S
Zr81         O83   2.437       .  S
Zr81        O105   2.443       .  S
Zr81        O107   2.425       .  S
Zr81         O85   2.385       .  S
Zr81         O88   2.372       .  S
Zr82        O108   2.436       .  S
Zr82        O109   2.435       .  S
Zr82         O84   2.437       .  S
Zr82         O85   2.414       .  S
Zr82         O86   2.388       .  S
O83         H120   0.990       .  S
O84         H115   0.990       .  S
O84         H129   0.990       .  S
O86         H112   0.965       .  S
O87         Zr97   2.393       .  S
O88         Zr97   2.364       .  S
O88         H113   0.966       .  S
C89        C1084   1.485       .  S
C90        C1067   1.491       .  S
C91        C1074   1.487       .  S
O92         H128   0.990       .  S
O93          C95   1.294   1_565  A
O94          C95   1.278   1_565  A
C95        C1054   1.496       .  S
O96         Zr97   2.440       .  S
O96         H125   0.990       .  S
Zr97        O100   2.436       .  S
Zr97        O101   2.440       .  S
Zr97        O102   2.406       .  S
O98         C103   1.285       .  A
O99         H116   0.990       .  S
O99         H131   0.990       .  S
O100        H117   0.990       .  S
O101        H121   0.990       .  S
O101        H130   0.990       .  S
O102        C103   1.279       .  A
C103       C1117   1.478       .  S
O104        H123   0.989   1_545  S
O104        H127   0.990       .  S
O105        H119   0.989       .  S
O105        H126   0.987       .  S
O106        C110   1.272       .  A
O107        C110   1.281       .  A
O108        H118   0.990       .  S
O109        H122   0.990       .  S
C110       C1044   1.432       .  S
Zr133       O134   2.437       .  S
Zr133       O135   2.419       .  S
Zr133       O136   2.484       .  S
Zr133      O1291   2.477   1_554  S
Zr133       O141   2.399       .  S
Zr133       O143   2.410       .  S
Zr133      O1294   2.404   1_554  S
Zr133      O1296   2.413   1_554  S
O134        H190   0.990       .  S
O134        H198   0.990       .  S
O135        C155   1.285   1_554  A
O136        C157   1.297       .  A
O137       Zr147   2.403       .  S
O137        C156   1.269       .  A
O138       Zr146   2.416       .  S
O138        C157   1.284       .  A
O139      Zr1285   2.477       .  S
O139        C156   1.287       .  A
O140       Zr148   2.461       .  S
O140       C1307   1.288       .  A
O141       Zr146   2.414       .  S
O141      Zr1300   2.380   1_554  S
O142       Zr147   2.397       .  S
O142       Zr148   2.347       .  S
O142      Zr1285   2.404       .  S
O142        H177   0.963       .  S
O143       Zr146   2.420       .  S
O143       Zr163   2.362       .  S
O143        H180   0.963       .  S
O144       Zr147   2.408       .  S
O144      Zr1285   2.413       .  S
O144      Zr1315   2.385       .  S
Zr145       O170   2.444       .  S
Zr145       O164   2.443       .  S
Zr145       O172   2.359       .  S
Zr145      O1312   2.402       .  S
Zr145       O151   2.404       .  S
Zr145       O154   2.369       .  S
Zr145      O1304   2.400       .  S
Zr145      O1305   2.356       .  S
Zr146       O165   2.435       .  S
Zr146       O158   2.434       .  S
Zr146       O159   2.497       .  S
Zr146       O152   2.378       .  S
Zr146       O153   2.388       .  S
Zr147       O149   2.437       .  S
Zr147       O171   2.444       .  S
Zr147       O173   2.431       .  S
Zr147       O151   2.385       .  S
Zr147       O154   2.373       .  S
Zr148       O174   2.436       .  S
Zr148       O175   2.435       .  S
Zr148      O1302   2.437       .  S
Zr148       O151   2.416       .  S
Zr148      O1293   2.380       .  S
Zr148      O1304   2.394       .  S
O149        H186   0.990       .  S
O150      Zr1300   2.437   1_554  S
O150        H181   0.990       .  S
O150        H195   0.990       .  S
O152      Zr1297   2.400   1_554  S
O152      Zr1300   2.394   1_554  S
O152        H178   0.965       .  S
O153       Zr163   2.394       .  S
O153      Zr1297   2.357   1_554  S
O154      Zr1315   2.367       .  S
O154        H179   0.966       .  S
C155       O1292   1.288       .  A
C155       C2186   1.490       .  S
C156       C1137   1.491       .  S
C157       C1127   1.486       .  S
O158        H194   0.990       .  S
O159        C161   1.294       .  A
O160      Zr1297   2.402   1_554  S
O160        C161   1.278       .  A
C161       C1004   1.498       .  S
O162       Zr163   2.440       .  S
O162        H191   0.990       .  S
Zr163       O166   2.437       .  S
Zr163      O1319   2.440       .  S
Zr163       O168   2.394       .  S
Zr163      O1296   2.385   1_554  S
Zr163      O1306   2.367   1_554  S
O164        C169   1.287       .  A
O165        H182   0.990       .  S
O165        H197   0.990       .  S
O166        H183   0.990       .  S
O167      Zr1315   2.440       .  S
O167        H187   0.990       .  S
O167        H196   0.990       .  S
O168       C1321   1.277       .  A
C169       O1320   1.277       .  A
C169       C2176   1.477       .  S
O170        H189   0.989       .  S
O170        H193   0.990       .  S
O171        H185   0.989       .  S
O171        H192   0.987       .  S
O172        C176   1.271       .  A
O173        C176   1.282       .  A
O174        H184   0.990       .  S
O175        H188   0.990       .  S
C176       C1014   1.435       .  S
Zr199       O200   2.434   1_554  S
Zr199       O201   2.421       .  S
Zr199       O202   2.479       .  S
Zr199      O1357   2.497   1_554  S
Zr199       O207   2.380       .  S
Zr199       O208   2.405   1_554  S
Zr199       O209   2.422       .  S
Zr199      O1362   2.381   1_554  S
O200        H256   0.990       .  S
O200        H264   0.990   1_556  S
O201        C221   1.286       .  A
O202        C223   1.288       .  A
O203       Zr213   2.421       .  S
O203        C222   1.285       .  A
O204       Zr212   2.400       .  S
O204        C223   1.268       .  A
O205      Zr1351   2.497       .  S
O205        C222   1.300       .  A
O206       Zr214   2.472       .  S
O206        C221   1.290       .  A
O207       Zr212   2.391       .  S
O207       Zr214   2.347       .  S
O208       Zr214   2.384   1_556  S
O208      Zr1365   2.408       .  S
O208       H1395   0.967       .  S
O209       Zr212   2.415       .  S
O209       Zr229   2.395   1_554  S
O209        H246   0.966       .  S
O210       Zr213   2.383       .  S
O210      Zr1351   2.381       .  S
O210      Zr1381   2.360       .  S
Zr211       O236   2.443       .  S
Zr211       O230   2.439       .  S
Zr211       O238   2.398   1_554  S
Zr211       O226   2.386       .  S
Zr211       O217   2.401       .  S
Zr211       O218   2.407       .  S
Zr211       O219   2.366       .  S
Zr211       O220   2.368   1_554  S
Zr212       O231   2.436       .  S
Zr212       O224   2.434       .  S
Zr212       O225   2.440       .  S
Zr212       O218   2.394       .  S
Zr212       O219   2.365       .  S
Zr213       O215   2.435       .  S
Zr213       O237   2.437       .  S
Zr213       O239   2.479       .  S
Zr213      O1360   2.408       .  S
Zr213      O1369   2.370       .  S
Zr213      O1372   2.392       .  S
Zr214       O240   2.435       .  S
Zr214       O241   2.435       .  S
Zr214       O216   2.438       .  S
Zr214       O217   2.399       .  S
Zr214       O218   2.432       .  S
O215        H252   0.990       .  S
O216        H247   0.990       .  S
O216        H261   0.990       .  S
O217      Zr1365   2.370   1_554  S
O218        H244   0.966       .  S
O219       Zr229   2.364   1_554  S
O220       Zr229   2.398       .  S
O220      Zr1365   2.392       .  S
O220       H1397   0.966       .  S
C221        C994   1.493       .  S
C222       C1064   1.496       .  S
C223       C1077   1.486       .  S
O224        H260   0.989       .  S
O225        C227   1.286       .  A
O226        C227   1.276       .  A
C227        C974   1.474       .  S
O228       Zr229   2.439       .  S
O228        H257   0.990       .  S
Zr229       O232   2.438   1_556  S
Zr229      O1385   2.439       .  S
Zr229       O234   2.397       .  S
Zr229      O1362   2.360       .  S
O230        C235   1.287       .  A
O231        H248   0.990       .  S
O231        H263   0.990       .  S
O232        H249   0.990       .  S
O233      Zr1381   2.439       .  S
O233        H253   0.990       .  S
O233        H262   0.990       .  S
O234        C235   1.278   1_556  A
C235       C1027   1.477       .  S
O236        H255   0.990       .  S
O236        H259   0.990       .  S
O237        H251   0.990       .  S
O237        H258   0.990       .  S
O238       C1394   1.278       .  A
O239        C242   1.291       .  A
O240        H250   0.990       .  S
O241        H254   0.990       .  S
C242       O1390   1.278       .  A
C242        C984   1.489       .  S
H243       O1360   0.967       .  S
H245       O1372   0.966       .  S
Zr265       O266   2.434   1_554  S
Zr265       O267   2.421       .  S
Zr265       O268   2.482       .  S
Zr265      O1423   2.490   1_554  S
Zr265       O273   2.375       .  S
Zr265       O274   2.404   1_554  S
Zr265       O275   2.420       .  S
Zr265      O1428   2.386   1_554  S
O266        H322   0.990       .  S
O266        H330   0.990   1_556  S
O267        C287   1.286       .  A
O268        C289   1.289       .  A
O269       Zr279   2.423       .  S
O269        C288   1.286       .  A
O270       Zr278   2.400       .  S
O270        C289   1.268       .  A
O271      Zr1417   2.490       .  S
O271        C288   1.299       .  A
O272       Zr280   2.463       .  S
O272        C287   1.288       .  A
O273       Zr278   2.389       .  S
O273       Zr280   2.345       .  S
O274       Zr280   2.383   1_556  S
O274      Zr1431   2.408       .  S
O274       H1461   0.966       .  S
O275       Zr278   2.413       .  S
O275       Zr295   2.398   1_554  S
O275        H312   0.966       .  S
O276       Zr279   2.387       .  S
O276      Zr1417   2.386       .  S
O276      Zr1447   2.368       .  S
Zr277       O302   2.444   1_565  S
Zr277       O296   2.427       .  S
Zr277       O304   2.399   1_554  S
Zr277       O292   2.388       .  S
Zr277       O283   2.401       .  S
Zr277       O284   2.404       .  S
Zr277       O285   2.366       .  S
Zr277       O286   2.369   1_554  S
Zr278       O297   2.434       .  S
Zr278       O290   2.434       .  S
Zr278       O291   2.433       .  S
Zr278       O284   2.394       .  S
Zr278       O285   2.364       .  S
Zr279       O281   2.435       .  S
Zr279       O303   2.436       .  S
Zr279       O305   2.481       .  S
Zr279      O1426   2.408       .  S
Zr279      O1435   2.371       .  S
Zr279      O1438   2.396       .  S
Zr280       O306   2.435       .  S
Zr280       O307   2.435       .  S
Zr280       O282   2.437       .  S
Zr280       O283   2.396       .  S
Zr280       O284   2.422       .  S
O281        H318   0.990       .  S
O282        H313   0.990       .  S
O282        H327   0.990       .  S
O283      Zr1431   2.371   1_554  S
O284        H310   0.966       .  S
O285       Zr295   2.367   1_554  S
O286       Zr295   2.396       .  S
O286      Zr1431   2.396       .  S
O286       H1463   0.968       .  S
C287        C964   1.488       .  S
C288        C954   1.496       .  S
C289        C947   1.486       .  S
O290        H326   0.990       .  S
O291        C293   1.285       .  A
O292        C293   1.274       .  A
C293       C1097   1.450       .  S
O294       Zr295   2.439       .  S
O294        H323   0.990       .  S
Zr295       O298   2.438   1_556  S
Zr295      O1451   2.439       .  S
Zr295       O300   2.410       .  S
Zr295      O1428   2.368       .  S
O296        C301   1.285       .  A
O297        H314   0.990       .  S
O297        H329   0.990       .  S
O298        H315   0.990       .  S
O299      Zr1447   2.439       .  S
O299        H319   0.990       .  S
O299        H328   0.990       .  S
O300        C301   1.280   1_556  A
C301        C937   1.477       .  S
O302        H321   0.990       .  S
O302        H325   0.990   1_545  S
O303        H317   0.990       .  S
O303        H324   0.990       .  S
O304       C1460   1.276       .  A
O305        C308   1.290       .  A
O306        H316   0.990       .  S
O307        H320   0.990       .  S
C308       O1456   1.276       .  A
C308       C1037   1.493   1_565  S
H309       O1426   0.966       .  S
H311       O1438   0.968       .  S
Zr331       O332   2.438       .  S
Zr331       O333   2.412       .  S
Zr331       O334   2.473       .  S
Zr331      O1489   2.480   1_554  S
Zr331       O339   2.392       .  S
Zr331       O341   2.420       .  S
Zr331      O1492   2.407   1_554  S
Zr331      O1494   2.414       .  S
O332        H388   0.990       .  S
O332        H396   0.990       .  S
O333        C353   1.284   1_554  A
O334        C355   1.296       .  A
O335       Zr345   2.401       .  S
O335        C354   1.268       .  A
O336       Zr344   2.419       .  S
O336        C355   1.284       .  A
O337      Zr1483   2.477       .  S
O337        C354   1.287       .  A
O338       Zr346   2.461       .  S
O338       C1505   1.288       .  A
O339       Zr344   2.415       .  S
O339      Zr1498   2.382   1_554  S
O340       Zr345   2.395       .  S
O340       Zr346   2.347       .  S
O340      Zr1483   2.402       .  S
O340        H375   0.964       .  S
O341       Zr344   2.419       .  S
O341       Zr361   2.362       .  S
O341        H378   0.962       .  S
O342       Zr345   2.405       .  S
O342      Zr1483   2.412       .  S
O342      Zr1513   2.390       .  S
Zr343       O368   2.442   1_545  S
Zr343       O362   2.435       .  S
Zr343       O370   2.369       .  S
Zr343      O1510   2.400   1_545  S
Zr343       O349   2.403       .  S
Zr343       O352   2.370       .  S
Zr343      O1502   2.401       .  S
Zr343      O1503   2.360       .  S
Zr344       O363   2.434       .  S
Zr344       O356   2.435       .  S
Zr344       O357   2.495       .  S
Zr344       O350   2.379       .  S
Zr344       O351   2.391       .  S
Zr345       O347   2.437       .  S
Zr345       O369   2.443       .  S
Zr345       O371   2.423       .  S
Zr345       O349   2.384       .  S
Zr345       O352   2.370       .  S
Zr346       O372   2.436       .  S
Zr346       O373   2.435       .  S
Zr346      O1500   2.437       .  S
Zr346       O349   2.418       .  S
Zr346      O1491   2.381       .  S
Zr346      O1502   2.392       .  S
O347        H384   0.990       .  S
O348      Zr1498   2.437   1_554  S
O348        H379   0.990       .  S
O348        H393   0.990       .  S
O350      Zr1495   2.401   1_554  S
O350      Zr1498   2.392   1_554  S
O350        H376   0.965       .  S
O351       Zr361   2.394       .  S
O351      Zr1495   2.361   1_554  S
O352      Zr1513   2.361       .  S
O352        H377   0.966       .  S
C353       O1490   1.288       .  A
C353       C2076   1.491       .  S
C354        C904   1.491       .  S
C355        C914   1.486       .  S
O356        H392   0.990       .  S
O357        C359   1.295   1_545  A
O358      Zr1495   2.400   1_564  S
O358        C359   1.279       .  A
C359        C997   1.494       .  S
O360       Zr361   2.440       .  S
O360        H389   0.990       .  S
Zr361       O364   2.443       .  S
Zr361      O1517   2.442       .  S
Zr361       O366   2.402       .  S
Zr361      O1494   2.369       .  S
Zr361      O1504   2.363   1_554  S
O362        C367   1.285       .  A
O363        H380   0.990       .  S
O363        H395   0.990       .  S
O364        H381   0.990       .  S
O365      Zr1513   2.440       .  S
O365        H385   0.990       .  S
O365        H394   0.990       .  S
O366       C1519   1.278       .  A
C367       O1518   1.279       .  A
C367       C2086   1.477       .  S
O368        H387   0.990   1_565  S
O368        H391   0.990       .  S
O369        H383   0.989       .  S
O369        H390   0.987       .  S
O370        C374   1.271       .  A
O371        C374   1.281       .  A
O372        H382   0.990       .  S
O373        H386   0.990       .  S
C374       C1047   1.431       .  S
Zr397       O398   2.434       .  S
Zr397       O399   2.424       .  S
Zr397       O400   2.479       .  S
Zr397       O403   2.503       .  S
Zr397       O405   2.381       .  S
Zr397       O406   2.404       .  S
Zr397       O407   2.423       .  S
Zr397       O408   2.380       .  S
O398        H454   0.990       .  S
O398        H462   0.990       .  S
O399        C419   1.287       .  A
O400        C421   1.289       .  A
O401       Zr411   2.412       .  S
O401        C420   1.284       .  A
O402       Zr410   2.403       .  S
O402        C421   1.269       .  A
O403        C420   1.302       .  A
O404       Zr412   2.469       .  S
O404        C419   1.289       .  A
O405       Zr410   2.396       .  S
O405       Zr412   2.345       .  S
O406       Zr411   2.409       .  S
O406       Zr412   2.381       .  S
O406        H441   0.967       .  S
O407       Zr410   2.422       .  S
O407       Zr427   2.392       .  S
O407        H444   0.966       .  S
O408       Zr411   2.389       .  S
O408       Zr427   2.363       .  S
Zr409       O434   2.445       .  S
Zr409       O428   2.445       .  S
Zr409       O436   2.401       .  S
Zr409       O424   2.363       .  S
Zr409       O415   2.402       .  S
Zr409       O416   2.404       .  S
Zr409       O417   2.365       .  S
Zr409       O418   2.364       .  S
Zr410       O429   2.435       .  S
Zr410       O422   2.435       .  S
Zr410       O423   2.461       .  S
Zr410       O416   2.391       .  S
Zr410       O417   2.369       .  S
Zr411       O413   2.435       .  S
Zr411       O435   2.437       .  S
Zr411       O437   2.480       .  S
Zr411       O415   2.370       .  S
Zr411       O418   2.394       .  S
Zr412       O438   2.435       .  S
Zr412       O439   2.435       .  S
Zr412       O414   2.437       .  S
Zr412       O415   2.403       .  S
Zr412       O416   2.420       .  S
O413        H450   0.990       .  S
O414        H445   0.990       .  S
O414        H459   0.990       .  S
O416        H442   0.966       .  S
O417       Zr427   2.371       .  S
O418       Zr427   2.395       .  S
O418        H443   0.966       .  S
C419       C1057   1.494       .  S
C420        C907   1.497       .  S
C421        C917   1.484       .  S
O422        H458   0.990       .  S
O423        C425   1.289       .  A
O424        C425   1.273       .  A
C425        C877   1.466       .  S
O426       Zr427   2.439       .  S
O426        H455   0.990       .  S
Zr427       O430   2.438       .  S
Zr427       O431   2.439       .  S
Zr427       O432   2.396       .  S
O428        C433   1.287       .  A
O429        H446   0.990       .  S
O429        H461   0.990       .  S
O430        H447   0.990       .  S
O431        H451   0.990       .  S
O431        H460   0.990       .  S
O432        C433   1.278       .  A
C433        C894   1.478       .  S
O434        H453   0.987   1_655  S
O434        H457   0.990       .  S
O435        H449   0.990       .  S
O435        H456   0.990       .  S
O436        C440   1.275       .  A
O437        C440   1.289       .  A
O438        H448   0.990       .  S
O439        H452   0.990       .  S
C440        C884   1.492   1_655  S
Zr463       O464   2.437       .  S
Zr463       O465   2.420       .  S
Zr463       O466   2.486       .  S
Zr463       O469   2.469       .  S
Zr463       O471   2.397       .  S
Zr463       O472   2.407       .  S
Zr463       O473   2.408       .  S
Zr463       O474   2.416       .  S
O464        H520   0.990       .  S
O464        H528   0.990       .  S
O465        C485   1.285       .  A
O466        C487   1.297       .  A
O467       Zr477   2.408       .  S
O467        C486   1.270       .  A
O468       Zr476   2.416       .  S
O468        C487   1.284       .  A
O469        C486   1.286       .  A
O470       Zr478   2.465       .  S
O470        C485   1.289       .  A
O471       Zr476   2.411       .  S
O471       Zr478   2.383       .  S
O472       Zr477   2.399       .  S
O472       Zr478   2.343       .  S
O472        H507   0.963       .  S
O473       Zr476   2.415       .  S
O473       Zr493   2.358       .  S
O473        H510   0.963       .  S
O474       Zr477   2.412       .  S
O474       Zr493   2.391       .  S
Zr475       O500   2.442   1_455  S
Zr475       O494   2.444       .  S
Zr475       O502   2.373       .  S
Zr475       O490   2.401   1_455  S
Zr475       O481   2.407       .  S
Zr475       O482   2.401       .  S
Zr475       O483   2.363       .  S
Zr475       O484   2.370       .  S
Zr476       O495   2.435       .  S
Zr476       O488   2.435       .  S
Zr476       O489   2.483       .  S
Zr476       O482   2.381       .  S
Zr476       O483   2.390       .  S
Zr477       O479   2.438       .  S
Zr477       O501   2.443       .  S
Zr477       O503   2.446       .  S
Zr477       O481   2.388       .  S
Zr477       O484   2.372       .  S
Zr478       O504   2.436       .  S
Zr478       O505   2.435       .  S
Zr478       O480   2.437       .  S
Zr478       O481   2.424       .  S
Zr478       O482   2.391       .  S
O479        H516   0.990       .  S
O480        H511   0.990       .  S
O480        H525   0.990       .  S
O482        H508   0.965       .  S
O483       Zr493   2.393       .  S
O484       Zr493   2.359       .  S
O484        H509   0.965       .  S
C485       C1107   1.491       .  S
C486        C957   1.492       .  S
C487        C944   1.487       .  S
O488        H524   0.990       .  S
O489        C491   1.292   1_455  A
O490        C491   1.279       .  A
C491        C864   1.489       .  S
O492       Zr493   2.439       .  S
O492        H521   0.990       .  S
Zr493       O496   2.437       .  S
Zr493       O497   2.440       .  S
Zr493       O498   2.398       .  S
O494        C499   1.287       .  A
O495        H512   0.990       .  S
O495        H527   0.990       .  S
O496        H513   0.990       .  S
O497        H517   0.990       .  S
O497        H526   0.990       .  S
O498        C499   1.278       .  A
C499        C897   1.477       .  S
O500        H519   0.990       .  S
O500        H523   0.990       .  S
O501        H515   0.989       .  S
O501        H522   0.988       .  S
O502        C506   1.275       .  A
O503        C506   1.287       .  A
O504        H514   0.990       .  S
O505        H518   0.990       .  S
C506        C854   1.467       .  S
Zr529       O530   2.437       .  S
Zr529       O531   2.420       .  S
Zr529       O532   2.485       .  S
Zr529      O1687   2.466   1_554  S
Zr529       O537   2.397       .  S
Zr529       O539   2.408       .  S
Zr529      O1690   2.406   1_554  S
Zr529      O1692   2.415   1_554  S
O530        H586   0.990       .  S
O530        H594   0.990       .  S
O531        C551   1.285   1_554  A
O532        C553   1.297       .  A
O533       Zr543   2.408       .  S
O533        C552   1.271       .  A
O534       Zr542   2.413       .  S
O534        C553   1.284       .  A
O535      Zr1681   2.466       .  S
O535        C552   1.286       .  A
O536       Zr544   2.460       .  S
O536       C1703   1.288       .  A
O537       Zr542   2.411       .  S
O537      Zr1696   2.382   1_554  S
O538       Zr543   2.398       .  S
O538       Zr544   2.346       .  S
O538      Zr1681   2.406       .  S
O538        H573   0.965       .  S
O539       Zr542   2.417       .  S
O539       Zr559   2.361       .  S
O539        H576   0.964       .  S
O540       Zr543   2.413       .  S
O540      Zr1681   2.415       .  S
O540      Zr1711   2.391       .  S
Zr541       O566   2.440   1_655  S
Zr541       O560   2.438       .  S
Zr541       O568   2.371       .  S
Zr541      O1708   2.402       .  S
Zr541       O547   2.407       .  S
Zr541       O550   2.370       .  S
Zr541      O1700   2.401       .  S
Zr541      O1701   2.363       .  S
Zr542       O561   2.435       .  S
Zr542       O554   2.435       .  S
Zr542       O555   2.483       .  S
Zr542       O548   2.385       .  S
Zr542       O549   2.388       .  S
Zr543       O545   2.438       .  S
Zr543       O567   2.442       .  S
Zr543       O569   2.450       .  S
Zr543       O547   2.387       .  S
Zr543       O550   2.370       .  S
Zr544       O570   2.435       .  S
Zr544       O571   2.435       .  S
Zr544      O1698   2.437       .  S
Zr544       O547   2.423       .  S
Zr544      O1689   2.382       .  S
Zr544      O1700   2.389       .  S
O545        H582   0.990       .  S
O546      Zr1696   2.437   1_554  S
O546        H577   0.990   1_554  S
O546        H591   0.990       .  S
O548      Zr1693   2.401   1_554  S
O548      Zr1696   2.389   1_554  S
O548        H574   0.965       .  S
O549       Zr559   2.390       .  S
O549      Zr1693   2.363   1_554  S
O550      Zr1711   2.358       .  S
O550        H575   0.965       .  S
C551       O1688   1.288       .  A
C551       C2139   1.488       .  S
C552        C834   1.491       .  S
C553        C844   1.489       .  S
O554        H590   0.990       .  S
O555        C557   1.291       .  A
O556      Zr1693   2.402   1_554  S
O556        C557   1.276       .  A
C557        C967   1.492   1_655  S
O558       Zr559   2.440       .  S
O558        H587   0.990       .  S
Zr559       O562   2.436       .  S
Zr559      O1715   2.440       .  S
Zr559       O564   2.404       .  S
Zr559      O1692   2.391   1_554  S
Zr559      O1702   2.358   1_554  S
O560        C565   1.286       .  A
O561        H578   0.990       .  S
O561        H593   0.990       .  S
O562        H579   0.990       .  S
O563      Zr1711   2.440       .  S
O563        H583   0.990       .  S
O563        H592   0.990       .  S
O564       C1717   1.279       .  A
C565       O1716   1.279       .  A
C565       C1976   1.477       .  S
O566        H585   0.990   1_455  S
O566        H589   0.990       .  S
O567        H581   0.989       .  S
O567        H588   0.988       .  S
O568        C572   1.275       .  A
O569        C572   1.288       .  A
O570        H580   0.990       .  S
O571        H584   0.990       .  S
C572        C857   1.468       .  S
Zr595       O596   2.434   1_554  S
Zr595       O597   2.424       .  S
Zr595       O598   2.488       .  S
Zr595      O1753   2.502   1_554  S
Zr595       O603   2.375       .  S
Zr595       O604   2.405   1_554  S
Zr595       O605   2.422       .  S
Zr595      O1758   2.383   1_554  S
O596        H652   0.990       .  S
O596        H660   0.990   1_556  S
O597        C617   1.287       .  A
O598        C619   1.289       .  A
O599       Zr609   2.417       .  S
O599        C618   1.285       .  A
O600       Zr608   2.401       .  S
O600        C619   1.269       .  A
O601      Zr1747   2.502       .  S
O601        C618   1.301       .  A
O602       Zr610   2.474       .  S
O602        C617   1.291       .  A
O603       Zr608   2.390       .  S
O603       Zr610   2.342       .  S
O604       Zr610   2.383   1_556  S
O604      Zr1761   2.410       .  S
O604       H1791   0.966       .  S
O605       Zr608   2.414       .  S
O605       Zr625   2.398   1_554  S
O605        H642   0.966       .  S
O606       Zr609   2.387       .  S
O606      Zr1747   2.383       .  S
O606      Zr1777   2.365       .  S
Zr607       O632   2.444   1_455  S
Zr607       O626   2.432       .  S
Zr607       O634   2.398   1_454  S
Zr607       O622   2.382       .  S
Zr607       O613   2.402       .  S
Zr607       O614   2.406       .  S
Zr607       O615   2.367       .  S
Zr607       O616   2.366   1_554  S
Zr608       O627   2.435       .  S
Zr608       O620   2.434       .  S
Zr608       O621   2.438       .  S
Zr608       O614   2.393       .  S
Zr608       O615   2.363       .  S
Zr609       O611   2.436       .  S
Zr609       O633   2.437       .  S
Zr609       O635   2.482       .  S
Zr609      O1756   2.410       .  S
Zr609      O1765   2.369       .  S
Zr609      O1768   2.394       .  S
Zr610       O636   2.435       .  S
Zr610       O637   2.434       .  S
Zr610       O612   2.437       .  S
Zr610       O613   2.400       .  S
Zr610       O614   2.426       .  S
O611        H648   0.990       .  S
O612        H643   0.990       .  S
O612        H657   0.990       .  S
O613      Zr1761   2.369   1_554  S
O614        H640   0.967       .  S
O615       Zr625   2.366   1_554  S
O616       Zr625   2.398       .  S
O616      Zr1761   2.394       .  S
O616       H1793   0.967       .  S
C617       C1007   1.496       .  S
C618        C814   1.497       .  S
C619        C804   1.488       .  S
O620        H656   0.990       .  S
O621        C623   1.287       .  A
O622        C623   1.273       .  A
C623        C874   1.458       .  S
O624       Zr625   2.439       .  S
O624        H653   0.990       .  S
Zr625       O628   2.438   1_556  S
Zr625      O1781   2.439       .  S
Zr625       O630   2.405       .  S
Zr625      O1758   2.364       .  S
O626        C631   1.285       .  A
O627        H644   0.990       .  S
O627        H659   0.990       .  S
O628        H645   0.990       .  S
O629      Zr1777   2.439       .  S
O629        H649   0.990       .  S
O629        H658   0.990       .  S
O630        C631   1.279   1_556  A
C631        C827   1.477       .  S
O632        H651   0.990       .  S
O632        H655   0.990       .  S
O633        H647   0.990       .  S
O633        H654   0.990       .  S
O634       C1790   1.276       .  A
O635        C638   1.290   1_455  A
O636        H646   0.990       .  S
O637        H650   0.990       .  S
C638       O1786   1.276       .  A
C638        C927   1.493       .  S
H639       O1756   0.966       .  S
H641       O1768   0.967       .  S
Zr661       O662   2.437       .  S
Zr661       O663   2.424       .  S
Zr661       O664   2.485       .  S
Zr661       O667   2.481       .  S
Zr661       O669   2.400       .  S
Zr661       O670   2.403       .  S
Zr661       O671   2.414       .  S
Zr661       O672   2.412       .  S
O662        H718   0.990       .  S
O662        H726   0.990       .  S
O663        C683   1.286       .  A
O664        C685   1.298       .  A
O665       Zr675   2.401       .  S
O665        C684   1.268       .  A
O666       Zr674   2.427       .  S
O666        C685   1.286       .  A
O667        C684   1.289       .  A
O668       Zr676   2.456       .  S
O668        C683   1.287       .  A
O669       Zr674   2.419       .  S
O669       Zr676   2.383       .  S
O670       Zr675   2.396       .  S
O670       Zr676   2.345       .  S
O670        H705   0.964       .  S
O671       Zr674   2.421       .  S
O671       Zr691   2.359       .  S
O671        H708   0.963       .  S
O672       Zr675   2.408       .  S
O672       Zr691   2.392       .  S
Zr673       O698   2.437       .  S
Zr673       O692   2.420       .  S
Zr673       O700   2.380       .  S
Zr673       O688   2.399       .  S
Zr673       O679   2.401       .  S
Zr673       O680   2.400       .  S
Zr673       O681   2.359       .  S
Zr673       O682   2.374       .  S
Zr674       O693   2.435       .  S
Zr674       O686   2.435       .  S
Zr674       O687   2.508       .  S
Zr674       O680   2.380       .  S
Zr674       O681   2.392       .  S
Zr675       O677   2.436       .  S
Zr675       O699   2.442       .  S
Zr675       O701   2.427       .  S
Zr675       O679   2.383       .  S
Zr675       O682   2.368       .  S
Zr676       O702   2.436       .  S
Zr676       O703   2.439       .  S
Zr676       O678   2.437       .  S
Zr676       O679   2.418       .  S
Zr676       O680   2.387       .  S
O677        H714   0.990       .  S
O678        H709   0.990       .  S
O678        H723   0.990       .  S
O680        H706   0.964       .  S
O681       Zr691   2.396       .  S
O682       Zr691   2.355       .  S
O682        H707   0.966       .  S
C683        C887   1.488       .  S
C684        C817   1.492       .  S
C685        C807   1.488       .  S
O686        H722   0.990       .  S
O687        C689   1.297       .  A
O688        C689   1.280       .  A
C689       C1147   1.502       .  S
O690       Zr691   2.439       .  S
O690        H719   0.990       .  S
Zr691       O694   2.436       .  S
Zr691       O695   2.441       .  S
Zr691       O696   2.407       .  S
O692        C697   1.283       .  A
O693        H710   0.990       .  S
O693        H725   0.990       .  S
O694        H711   0.990       .  S
O695        H715   0.990       .  S
O695        H724   0.990       .  S
O696        C697   1.279       .  A
C697        C794   1.473       .  S
O698        H717   0.990       .  S
O698        H721   0.989       .  S
O699        H713   0.989       .  S
O699        H720   0.987       .  S
O700        C704   1.268       .  A
O701        C704   1.282       .  A
O702        H712   0.990       .  S
O703        H716   0.990       .  S
C704       C1017   1.437       .  S
Zr727       O728   2.434       .  S
Zr727       O729   2.418       .  S
Zr727       O730   2.476       .  S
Zr727       O733   2.489       .  S
Zr727       O735   2.378       .  S
Zr727       O736   2.404       .  S
Zr727       O737   2.420       .  S
Zr727       O738   2.384       .  S
O728        H784   0.990       .  S
O728        H792   0.990       .  S
O729        C749   1.286       .  A
O730        C751   1.289       .  A
O731       Zr741   2.424       .  S
O731        C750   1.286       .  A
O732       Zr740   2.400       .  S
O732        C751   1.269       .  A
O733        C750   1.299       .  A
O734       Zr742   2.464       .  S
O734        C749   1.289       .  A
O735       Zr740   2.391       .  S
O735       Zr742   2.349       .  S
O736       Zr741   2.406       .  S
O736       Zr742   2.384       .  S
O736        H771   0.966       .  S
O737       Zr740   2.415       .  S
O737       Zr757   2.397       .  S
O737        H774   0.966       .  S
O738       Zr741   2.386       .  S
O738       Zr757   2.363       .  S
Zr739       O764   2.442       .  S
Zr739       O758   2.427       .  S
Zr739       O766   2.394       .  S
Zr739       O754   2.385       .  S
Zr739       O745   2.398       .  S
Zr739       O746   2.403       .  S
Zr739       O747   2.364       .  S
Zr739       O748   2.371       .  S
Zr740       O759   2.436       .  S
Zr740       O752   2.434       .  S
Zr740       O753   2.442       .  S
Zr740       O746   2.395       .  S
Zr740       O747   2.361       .  S
Zr741       O743   2.435       .  S
Zr741       O765   2.437       .  S
Zr741       O767   2.480       .  S
Zr741       O745   2.373       .  S
Zr741       O748   2.392       .  S
Zr742       O768   2.435       .  S
Zr742       O769   2.435       .  S
Zr742       O744   2.437       .  S
Zr742       O745   2.396       .  S
Zr742       O746   2.428       .  S
O743        H780   0.990       .  S
O744        H775   0.990       .  S
O744        H789   0.990       .  S
O746        H772   0.967       .  S
O747       Zr757   2.364       .  S
O748       Zr757   2.394       .  S
O748        H773   0.967       .  S
C749        C867   1.488       .  S
C750        C837   1.496       .  S
C751        C847   1.485       .  S
O752        H788   0.989       .  S
O753        C755   1.287       .  A
O754        C755   1.276       .  A
C755        C977   1.474       .  S
O756       Zr757   2.439       .  S
O756        H785   0.990       .  S
Zr757       O760   2.438       .  S
Zr757       O761   2.439       .  S
Zr757       O762   2.402       .  S
O758        C763   1.284       .  A
O759        H776   0.990       .  S
O759        H791   0.990       .  S
O760        H777   0.990       .  S
O761        H781   0.990       .  S
O761        H790   0.990       .  S
O762        C763   1.279       .  A
C763        C797   1.474       .  S
O764        H783   0.990       .  S
O764        H787   0.990       .  S
O765        H779   0.990       .  S
O765        H786   0.990       .  S
O766        C770   1.276       .  A
O767        C770   1.290       .  A
O768        H778   0.990       .  S
O769        H782   0.990       .  S
C770       C1087   1.488       .  S
C793        C794   1.403       .  A
C793        C798   1.391       .  A
C793        H799   1.083       .  S
C794        C795   1.407       .  A
C795        C796   1.394       .  A
C795        H800   1.083       .  S
C796        C797   1.403       .  A
C796        H801   1.083       .  S
C797        C798   1.407       .  A
C798        H802   1.083       .  S
C803        C804   1.410       .  A
C803        C808   1.401       .  A
C803        H809   1.083       .  S
C804        C805   1.405       .  A
C805        C806   1.402       .  A
C805        H810   1.082       .  S
C806        C807   1.410       .  A
C806        H811   1.083       .  S
C807        C808   1.405       .  A
C808        H812   1.083       .  S
C813        C814   1.405       .  A
C813        C818   1.408       .  A
C813        H819   1.083       .  S
C814        C815   1.414       .  A
C815        C816   1.399       .  A
C815        H820   1.083       .  S
C816        C817   1.402       .  A
C816        H821   1.082       .  S
C817        C818   1.414       .  A
C818        H822   1.083       .  S
C823        C824   1.408       .  A
C823        C828   1.393       .  A
C823        H829   1.083       .  S
C824       C1717   1.477       .  S
C824       C1977   1.403   1_655  A
C825        C826   1.396       .  A
C825       C1976   1.403   1_455  A
C825        H830   1.083       .  S
C826       C1979   1.408       .  A
C826        H831   1.083       .  S
C827        C828   1.403   1_455  A
C827       C1978   1.408   1_554  A
C828        H832   1.083       .  S
C833        C834   1.403       .  A
C833        C838   1.397       .  A
C833        H839   1.083       .  S
C834        C835   1.412       .  A
C835        C836   1.407       .  A
C835        H840   1.082       .  S
C836        C837   1.406       .  A
C836        H841   1.083       .  S
C837        C838   1.413       .  A
C838        H842   1.083       .  S
C843        C844   1.411       .  A
C843        C848   1.396       .  A
C843        H849   1.083       .  S
C844        C845   1.405       .  A
C845        C846   1.404       .  A
C845        H850   1.083       .  S
C846        C847   1.411       .  A
C846        H851   1.083       .  S
C847        C848   1.402       .  A
C848        H852   1.082       .  S
C853        C854   1.398       .  A
C853        C858   1.390       .  A
C853        H859   1.083       .  S
C854        C855   1.410   1_455  A
C855        C856   1.390       .  A
C855        H860   1.083       .  S
C856        C857   1.398       .  A
C856        H861   1.083       .  S
C857        C858   1.410   1_655  A
C858        H862   1.083       .  S
C863        C864   1.407       .  A
C863        C868   1.394       .  A
C863        H869   1.083       .  S
C864        C865   1.409       .  A
C865        C866   1.411       .  A
C865        H870   1.083       .  S
C866        C867   1.409       .  A
C866        H871   1.083       .  S
C867        C868   1.404       .  A
C868        H872   1.084       .  S
C873        C874   1.410   1_655  A
C873        C878   1.403       .  A
C873        H879   1.083       .  S
C874        C875   1.393       .  A
C875        C876   1.380       .  A
C875        H880   1.084       .  S
C876        C877   1.407   1_455  A
C876        H881   1.081       .  S
C877        C878   1.401       .  A
C878        H882   1.083       .  S
C883        C884   1.409       .  A
C883        C888   1.412       .  A
C883        H889   1.083       .  S
C884        C885   1.408       .  A
C885        C886   1.392       .  A
C885        H890   1.083       .  S
C886        C887   1.403       .  A
C886        H891   1.084       .  S
C887        C888   1.409       .  A
C888        H892   1.083       .  S
C893        C894   1.409       .  A
C893        C898   1.395       .  A
C893        H899   1.083       .  S
C894        C895   1.402   1_655  A
C895        C896   1.396       .  A
C895        H900   1.083       .  S
C896        C897   1.409       .  A
C896        H901   1.083       .  S
C897        C898   1.402   1_455  A
C898        H902   1.083       .  S
C903        C904   1.402       .  A
C903        C908   1.398       .  A
C903        H909   1.083       .  S
C904        C905   1.413       .  A
C905        C906   1.408       .  A
C905        H910   1.082       .  S
C906        C907   1.405       .  A
C906        H911   1.083       .  S
C907        C908   1.414       .  A
C908        H912   1.083       .  S
C913        C914   1.410       .  A
C913        C918   1.399       .  A
C913        H919   1.083       .  S
C914        C915   1.405       .  A
C915        C916   1.401       .  A
C915        H920   1.083       .  S
C916        C917   1.410       .  A
C916        H921   1.083       .  S
C917        C918   1.404       .  A
C918        H922   1.082       .  S
C923        C924   1.410       .  A
C923        C928   1.413       .  A
C923        H929   1.083       .  S
C924       C1505   1.491       .  S
C924       C2077   1.404       .  A
C925        C926   1.392       .  A
C925       C2076   1.404       .  A
C925        H930   1.083       .  S
C926       C2079   1.408       .  A
C926        H931   1.083       .  S
C927        C928   1.410       .  A
C927       C2078   1.408       .  A
C928        H932   1.083       .  S
C933        C934   1.408       .  A
C933        C938   1.392       .  A
C933        H939   1.083       .  S
C934       C1519   1.476       .  S
C934       C2087   1.403   1_545  A
C935        C936   1.397       .  A
C935       C2086   1.404   1_565  A
C935        H940   1.083       .  S
C936       C2089   1.408       .  A
C936        H941   1.083       .  S
C937        C938   1.403   1_565  A
C937       C2088   1.408   1_554  A
C938        H942   1.083       .  S
C943        C944   1.405       .  A
C943        C948   1.402       .  A
C943        H949   1.083       .  S
C944        C945   1.410       .  A
C945        C946   1.399       .  A
C945        H950   1.083       .  S
C946        C947   1.404       .  A
C946        H951   1.081       .  S
C947        C948   1.410       .  A
C948        H952   1.083       .  S
C953        C954   1.412       .  A
C953        C958   1.399       .  A
C953        H959   1.083       .  S
C954        C955   1.406       .  A
C955        C956   1.407       .  A
C955        H960   1.083       .  S
C956        C957   1.412       .  A
C956        H961   1.082       .  S
C957        C958   1.403       .  A
C958        H962   1.083       .  S
C963        C964   1.403       .  A
C963        C968   1.394       .  A
C963        H969   1.084       .  S
C964        C965   1.409       .  A
C965        C966   1.412       .  A
C965        H970   1.083       .  S
C966        C967   1.410       .  A
C966        H971   1.083       .  S
C967        C968   1.408       .  A
C968        H972   1.083       .  S
C973        C974   1.400       .  A
C973        C978   1.393       .  A
C973        H979   1.083       .  S
C974        C975   1.409       .  A
C975        C976   1.393       .  A
C975        H980   1.083       .  S
C976        C977   1.400       .  A
C976        H981   1.083       .  S
C977        C978   1.410       .  A
C978        H982   1.083       .  S
C983        C984   1.409       .  A
C983        C988   1.411       .  A
C983        H989   1.083       .  S
C984        C985   1.406       .  A
C985       C2138   1.393       .  A
C985       H2142   1.083       .  S
C986       C2137   1.393       .  A
C986       C2139   1.404       .  A
C986        H991   1.083       .  S
C987       C1703   1.488       .  S
C987        C988   1.409       .  A
C987       C2138   1.404       .  A
C988        H992   1.083       .  S
H990       C2137   1.083       .  S
C993        C994   1.404       .  A
C993        C998   1.395       .  A
C993        H999   1.084       .  S
C994        C995   1.410       .  A
C995        C996   1.414       .  A
C995       H1000   1.083       .  S
C996        C997   1.410       .  A
C996       H1001   1.083       .  S
C997        C998   1.408       .  A
C998       H1002   1.083       .  S
C1003      C1004   1.409       .  A
C1003      C1008   1.396       .  A
C1003      H1009   1.083       .  S
C1004      C1005   1.410       .  A
C1005      C1006   1.415       .  A
C1005      H1010   1.083       .  S
C1006      C1007   1.411       .  A
C1006      H1011   1.083       .  S
C1007      C1008   1.404       .  A
C1008      H1012   1.083       .  S
C1013      C1014   1.397       .  A
C1013      C1018   1.377       .  A
C1013      H1019   1.084       .  S
C1014      C1015   1.399       .  A
C1015      C1016   1.397       .  A
C1015      H1020   1.083       .  S
C1016      C1017   1.405       .  A
C1016      H1021   1.083       .  S
C1017      C1018   1.394       .  A
C1018      H1022   1.085       .  S
C1023      C1024   1.410       .  A
C1023      C1028   1.394       .  A
C1023      H1029   1.083       .  S
C1024      C1321   1.477       .  S
C1024      C1025   1.401       .  A
C1025      C1026   1.395       .  A
C1025      H1030   1.083   1_554  S
C1026      C1027   1.410       .  A
C1026      H1031   1.083   1_554  S
C1027      C1028   1.401       .  A
C1028      H1032   1.083       .  S
C1033      C1034   1.410       .  A
C1033      C1038   1.413       .  A
C1033      H1039   1.083       .  S
C1034      C1307   1.490       .  S
C1034      C2187   1.404       .  A
C1035      C1036   1.391       .  A
C1035      C2186   1.404       .  A
C1035      H1040   1.083       .  S
C1036      C2189   1.407       .  A
C1036      H1041   1.083       .  S
C1037      C1038   1.410       .  A
C1037      C2188   1.407       .  A
C1038      H1042   1.083       .  S
C1043      C1044   1.400       .  A
C1043      C1048   1.398   1_565  A
C1043      H1049   1.083       .  S
C1044      C1045   1.395       .  A
C1045      C1046   1.374   1_565  A
C1045      H1050   1.084       .  S
C1046      C1047   1.394       .  A
C1046      H1051   1.085       .  S
C1047      C1048   1.403       .  A
C1048      H1052   1.083       .  S
C1053      C1054   1.408       .  A
C1053      C1058   1.396       .  A
C1053      H1059   1.083       .  S
C1054      C1055   1.410       .  A
C1055      C1056   1.414       .  A
C1055      H1060   1.083       .  S
C1056      C1057   1.410       .  A
C1056      H1061   1.083       .  S
C1057      C1058   1.404       .  A
C1058      H1062   1.083       .  S
C1063      C1064   1.413       .  A
C1063      C1068   1.399       .  A
C1063      H1069   1.083       .  S
C1064      C1065   1.405       .  A
C1065      C1066   1.407       .  A
C1065      H1070   1.083       .  S
C1066      C1067   1.413       .  A
C1066      H1071   1.082       .  S
C1067      C1068   1.402       .  A
C1068      H1072   1.082       .  S
C1073      C1074   1.404       .  A
C1073      C1078   1.402       .  A
C1073      H1079   1.083       .  S
C1074      C1075   1.411       .  A
C1075      C1076   1.398       .  A
C1075      H1080   1.083       .  S
C1076      C1077   1.403       .  A
C1076      H1081   1.082       .  S
C1077      C1078   1.411       .  A
C1078      H1082   1.083       .  S
C1083      C1084   1.409       .  A
C1083      C1088   1.411       .  A
C1083      H1089   1.083       .  S
C1084      C1085   1.403       .  A
C1085      C1086   1.391       .  A
C1085      H1090   1.084       .  S
C1086      C1087   1.407       .  A
C1086      H1091   1.083       .  S
C1087      C1088   1.409       .  A
C1088      H1092   1.083       .  S
C1093      C1094   1.402       .  A
C1093      C1098   1.404   1_545  A
C1093      H1099   1.083       .  S
C1094      C1095   1.401   1_545  A
C1095      C1096   1.379       .  A
C1095      H1100   1.082       .  S
C1096      C1097   1.394       .  A
C1096      H1101   1.085       .  S
C1097      C1098   1.407       .  A
C1098      H1102   1.083       .  S
C1103      C1104   1.410       .  A
C1103      C1108   1.413       .  A
C1103      H1109   1.083       .  S
C1104      C1105   1.407       .  A
C1105      C1106   1.393       .  A
C1105      H1110   1.083       .  S
C1106      C1107   1.404       .  A
C1106      H1111   1.083       .  S
C1107      C1108   1.409       .  A
C1108      H1112   1.083       .  S
C1113      C1114   1.408       .  A
C1113      C1118   1.394       .  A
C1113      H1119   1.083       .  S
C1114      C1115   1.403   1_545  A
C1115      C1116   1.395       .  A
C1115      H1120   1.083       .  S
C1116      C1117   1.408       .  A
C1116      H1121   1.083       .  S
C1117      C1118   1.403   1_565  A
C1118      H1122   1.083       .  S
C1123      C1124   1.404       .  A
C1123      C1128   1.399       .  A
C1123      H1129   1.083       .  S
C1124      C1125   1.410       .  A
C1125      C1126   1.402       .  A
C1125      H1130   1.083       .  S
C1126      C1127   1.404       .  A
C1126      H1131   1.083       .  S
C1127      C1128   1.410       .  A
C1128      H1132   1.083       .  S
C1133      C1134   1.414       .  A
C1133      C1138   1.400       .  A
C1133      H1139   1.083       .  S
C1134      C1135   1.405       .  A
C1135      C1136   1.406       .  A
C1135      H1140   1.083       .  S
C1136      C1137   1.413       .  A
C1136      H1141   1.082       .  S
C1137      C1138   1.402       .  A
C1138      H1142   1.083       .  S
C1143      C1144   1.400       .  A
C1143      C1148   1.387       .  A
C1143      H1149   1.083       .  S
C1144      C1145   1.416       .  A
C1145      C1146   1.420       .  A
C1145      H1150   1.083       .  S
C1146      C1147   1.410       .  A
C1146      H1151   1.082       .  S
C1147      C1148   1.410       .  A
C1148      H1152   1.079       .  S
Zr1153     O1154   2.434       .  S
Zr1153     O1155   2.419       .  S
Zr1153     O1156   2.480       .  S
Zr1153     O1159   2.495       .  S
Zr1153     O1161   2.378       .  S
Zr1153     O1162   2.402       .  S
Zr1153     O1163   2.422       .  S
Zr1153     O1164   2.383       .  S
O1154      H1210   0.990       .  S
O1154      H1218   0.990       .  S
O1155      C1175   1.286       .  A
O1156      C1177   1.289       .  A
O1157     Zr1167   2.420       .  S
O1157      C1176   1.285       .  A
O1158     Zr1166   2.404       .  S
O1158      C1177   1.269       .  A
O1159      C1176   1.300       .  A
O1160     Zr1168   2.471       .  S
O1160      C1175   1.289       .  A
O1161     Zr1166   2.395       .  S
O1161     Zr1168   2.346       .  S
O1162     Zr1167   2.406       .  S
O1162     Zr1168   2.383       .  S
O1162      H1197   0.966       .  S
O1163     Zr1166   2.416       .  S
O1163     Zr1183   2.395       .  S
O1163      H1200   0.966       .  S
O1164     Zr1167   2.388       .  S
O1164     Zr1183   2.366       .  S
Zr1165     O1190   2.446   1_545  S
Zr1165     O1184   2.436       .  S
Zr1165     O1192   2.404   1_545  S
Zr1165     O1180   2.374       .  S
Zr1165     O1171   2.399       .  S
Zr1165     O1172   2.404       .  S
Zr1165     O1173   2.369       .  S
Zr1165     O1174   2.365       .  S
Zr1166     O1185   2.435       .  S
Zr1166     O1178   2.434       .  S
Zr1166     O1179   2.449       .  S
Zr1166     O1172   2.394       .  S
Zr1166     O1173   2.369       .  S
Zr1167     O1169   2.435       .  S
Zr1167     O1191   2.437       .  S
Zr1167     O1193   2.479       .  S
Zr1167     O1171   2.372       .  S
Zr1167     O1174   2.392       .  S
Zr1168     O1194   2.434       .  S
Zr1168     O1195   2.435       .  S
Zr1168     O1170   2.437       .  S
Zr1168     O1171   2.403       .  S
Zr1168     O1172   2.418       .  S
O1169      H1206   0.990       .  S
O1170      H1201   0.990       .  S
O1170      H1215   0.990       .  S
O1172      H1198   0.966       .  S
O1173     Zr1183   2.369       .  S
O1174     Zr1183   2.395       .  S
O1174      H1199   0.967       .  S
C1175      C2296   1.496       .  S
C1176      C2286   1.496       .  S
C1177      C2276   1.485       .  S
O1178      H1214   0.990       .  S
O1179      C1181   1.286       .  A
O1180      C1181   1.275       .  A
C1181      C2246   1.456       .  S
O1182     Zr1183   2.439       .  S
O1182      H1211   0.990       .  S
Zr1183     O1186   2.438       .  S
Zr1183     O1187   2.439       .  S
Zr1183     O1188   2.403       .  S
O1184      C1189   1.286       .  A
O1185      H1202   0.990       .  S
O1185      H1217   0.990       .  S
O1186      H1203   0.990       .  S
O1187      H1207   0.990       .  S
O1187      H1216   0.990       .  S
O1188      C1189   1.279       .  A
C1189      C2266   1.478       .  S
O1190      H1209   0.988       .  S
O1190      H1213   0.989       .  S
O1191      H1205   0.990       .  S
O1191      H1212   0.990       .  S
O1192      C1196   1.277       .  A
O1193      C1196   1.290   1_545  A
O1194      H1204   0.990       .  S
O1195      H1208   0.990       .  S
C1196      C2256   1.493       .  S
Zr1219     O1220   2.437       .  S
Zr1219     O1221   2.423       .  S
Zr1219     O1222   2.483       .  S
Zr1219     O1225   2.475       .  S
Zr1219     O1227   2.399       .  S
Zr1219     O1228   2.402       .  S
Zr1219     O1229   2.412       .  S
Zr1219     O1230   2.414       .  S
O1220      H1276   0.990       .  S
O1220      H1284   0.990       .  S
O1221      C1241   1.286       .  A
O1222      C1243   1.297       .  A
O1223     Zr1233   2.403       .  S
O1223      C1242   1.269       .  A
O1224     Zr1232   2.416       .  S
O1224      C1243   1.284       .  A
O1225      C1242   1.287       .  A
O1226     Zr1234   2.453       .  S
O1226      C1241   1.286       .  A
O1227     Zr1232   2.414       .  S
O1227     Zr1234   2.382       .  S
O1228     Zr1233   2.395       .  S
O1228     Zr1234   2.348       .  S
O1228      H1263   0.964       .  S
O1229     Zr1232   2.419       .  S
O1229     Zr1249   2.367       .  S
O1229      H1266   0.963       .  S
O1230     Zr1233   2.406       .  S
O1230     Zr1249   2.390       .  S
Zr1231     O1256   2.443   1_565  S
Zr1231     O1250   2.433       .  S
Zr1231     O1258   2.365       .  S
Zr1231     O1246   2.402       .  S
Zr1231     O1237   2.402       .  S
Zr1231     O1238   2.398       .  S
Zr1231     O1239   2.358       .  S
Zr1231     O1240   2.370       .  S
Zr1232     O1251   2.434       .  S
Zr1232     O1244   2.434       .  S
Zr1232     O1245   2.494       .  S
Zr1232     O1238   2.380       .  S
Zr1232     O1239   2.389       .  S
Zr1233     O1235   2.437       .  S
Zr1233     O1257   2.443       .  S
Zr1233     O1259   2.425       .  S
Zr1233     O1237   2.385       .  S
Zr1233     O1240   2.372       .  S
Zr1234     O1260   2.436       .  S
Zr1234     O1261   2.435       .  S
Zr1234     O1236   2.437       .  S
Zr1234     O1237   2.414       .  S
Zr1234     O1238   2.388       .  S
O1235      H1272   0.990       .  S
O1236      H1267   0.990       .  S
O1236      H1281   0.990       .  S
O1238      H1264   0.965       .  S
O1239     Zr1249   2.393       .  S
O1240     Zr1249   2.364       .  S
O1240      H1265   0.966       .  S
C1241      C2236   1.485       .  S
C1242      C2219   1.491       .  S
C1243      C2226   1.487       .  S
O1244      H1280   0.990       .  S
O1245      C1247   1.294   1_565  A
O1246      C1247   1.278   1_565  A
C1247      C2206   1.496       .  S
O1248     Zr1249   2.440       .  S
O1248      H1277   0.990       .  S
Zr1249     O1252   2.436       .  S
Zr1249     O1253   2.440       .  S
Zr1249     O1254   2.406       .  S
O1250      C1255   1.285       .  A
O1251      H1268   0.990       .  S
O1251      H1283   0.990       .  S
O1252      H1269   0.990       .  S
O1253      H1273   0.990       .  S
O1253      H1282   0.990       .  S
O1254      C1255   1.279       .  A
C1255      C2269   1.478       .  S
O1256      H1275   0.989   1_545  S
O1256      H1279   0.990       .  S
O1257      H1271   0.989       .  S
O1257      H1278   0.987       .  S
O1258      C1262   1.272       .  A
O1259      C1262   1.281       .  A
O1260      H1270   0.990       .  S
O1261      H1274   0.990       .  S
C1262      C2196   1.432       .  S
Zr1285     O1286   2.437       .  S
Zr1285     O1287   2.419       .  S
Zr1285     O1288   2.484       .  S
Zr1285     O1293   2.398       .  S
Zr1285     O1295   2.410       .  S
O1286      H1342   0.990       .  S
O1286      H1350   0.990       .  S
O1287      C1307   1.285       .  A
O1288      C1309   1.297       .  A
O1289     Zr1299   2.403       .  S
O1289      C1308   1.269       .  A
O1290     Zr1298   2.416       .  S
O1290      C1309   1.284       .  A
O1291      C1308   1.287       .  A
O1292     Zr1300   2.461       .  S
O1293     Zr1298   2.414       .  S
O1294     Zr1299   2.397       .  S
O1294     Zr1300   2.347       .  S
O1294      H1329   0.963       .  S
O1295     Zr1298   2.420       .  S
O1295     Zr1315   2.362       .  S
O1295      H1332   0.963       .  S
O1296     Zr1299   2.407       .  S
Zr1297     O1322   2.444       .  S
Zr1297     O1316   2.443   1_556  S
Zr1297     O1324   2.359       .  S
Zr1297     O1303   2.404       .  S
Zr1297     O1306   2.369       .  S
Zr1298     O1317   2.435       .  S
Zr1298     O1310   2.434       .  S
Zr1298     O1311   2.497       .  S
Zr1298     O1304   2.378       .  S
Zr1298     O1305   2.388       .  S
Zr1299     O1301   2.437       .  S
Zr1299     O1323   2.444       .  S
Zr1299     O1325   2.431       .  S
Zr1299     O1303   2.385       .  S
Zr1299     O1306   2.373       .  S
Zr1300     O1326   2.436       .  S
Zr1300     O1327   2.435       .  S
Zr1300     O1303   2.416       .  S
O1301      H1338   0.990       .  S
O1302      H1333   0.990       .  S
O1302      H1347   0.990       .  S
O1304      H1330   0.965       .  S
O1305     Zr1315   2.394       .  S
O1306      H1331   0.966       .  S
C1308      C2289   1.491       .  S
C1309      C2279   1.486       .  S
O1310      H1346   0.990       .  S
O1311      C1313   1.294       .  A
O1312      C1313   1.278       .  A
C1313      C2156   1.498       .  S
O1314     Zr1315   2.440       .  S
O1314      H1343   0.990       .  S
Zr1315     O1318   2.437       .  S
Zr1315     O1320   2.394       .  S
O1316      C1321   1.287       .  A
O1317      H1334   0.990       .  S
O1317      H1349   0.990       .  S
O1318      H1335   0.990       .  S
O1319      H1339   0.990       .  S
O1319      H1348   0.990   1_554  S
O1322      H1341   0.989       .  S
O1322      H1345   0.990       .  S
O1323      H1337   0.989       .  S
O1323      H1344   0.987       .  S
O1324      C1328   1.271       .  A
O1325      C1328   1.282       .  A
O1326      H1336   0.990       .  S
O1327      H1340   0.990       .  S
C1328      C2166   1.435       .  S
Zr1351     O1352   2.434       .  S
Zr1351     O1353   2.421       .  S
Zr1351     O1354   2.479       .  S
Zr1351     O1359   2.380       .  S
Zr1351     O1360   2.405       .  S
Zr1351     O1361   2.422       .  S
O1352      H1408   0.990       .  S
O1352      H1416   0.990       .  S
O1353      C1373   1.286       .  A
O1354      C1375   1.288       .  A
O1355     Zr1365   2.421       .  S
O1355      C1374   1.285       .  A
O1356     Zr1364   2.400       .  S
O1356      C1375   1.268       .  A
O1357      C1374   1.300       .  A
O1358     Zr1366   2.472       .  S
O1358      C1373   1.290       .  A
O1359     Zr1364   2.391       .  S
O1359     Zr1366   2.347       .  S
O1360     Zr1366   2.384       .  S
O1361     Zr1364   2.415       .  S
O1361     Zr1381   2.395       .  S
O1361      H1398   0.966       .  S
O1362     Zr1365   2.383       .  S
Zr1363     O1388   2.443       .  S
Zr1363     O1382   2.439       .  S
Zr1363     O1390   2.398       .  S
Zr1363     O1378   2.386       .  S
Zr1363     O1369   2.401       .  S
Zr1363     O1370   2.407       .  S
Zr1363     O1371   2.366       .  S
Zr1363     O1372   2.368       .  S
Zr1364     O1383   2.436       .  S
Zr1364     O1376   2.434       .  S
Zr1364     O1377   2.440       .  S
Zr1364     O1370   2.394       .  S
Zr1364     O1371   2.365       .  S
Zr1365     O1367   2.435       .  S
Zr1365     O1389   2.437       .  S
Zr1365     O1391   2.479       .  S
Zr1366     O1392   2.435       .  S
Zr1366     O1393   2.435       .  S
Zr1366     O1368   2.438       .  S
Zr1366     O1369   2.399       .  S
Zr1366     O1370   2.432       .  S
O1367      H1404   0.990       .  S
O1368      H1399   0.990       .  S
O1368      H1413   0.990       .  S
O1370      H1396   0.966       .  S
O1371     Zr1381   2.364       .  S
O1372     Zr1381   2.398       .  S
C1373      C2146   1.493       .  S
C1374      C2216   1.496       .  S
C1375      C2229   1.486       .  S
O1376      H1412   0.989       .  S
O1377      C1379   1.286       .  A
O1378      C1379   1.277       .  A
C1379      C2126   1.474       .  S
O1380     Zr1381   2.439       .  S
O1380      H1409   0.990       .  S
Zr1381     O1384   2.438       .  S
Zr1381     O1386   2.398       .  S
O1382      C1387   1.287       .  A
O1383      H1400   0.990       .  S
O1383      H1415   0.990       .  S
O1384      H1401   0.990       .  S
O1385      H1405   0.990       .  S
O1385      H1414   0.990       .  S
O1386      C1387   1.278       .  A
C1387      C2179   1.477       .  S
O1388      H1407   0.990       .  S
O1388      H1411   0.990       .  S
O1389      H1403   0.990       .  S
O1389      H1410   0.990       .  S
O1391      C1394   1.291       .  A
O1392      H1402   0.990       .  S
O1393      H1406   0.990       .  S
C1394      C2136   1.489       .  S
Zr1417     O1418   2.434       .  S
Zr1417     O1419   2.421       .  S
Zr1417     O1420   2.482       .  S
Zr1417     O1425   2.375       .  S
Zr1417     O1426   2.404       .  S
Zr1417     O1427   2.420       .  S
O1418      H1474   0.990       .  S
O1418      H1482   0.990       .  S
O1419      C1439   1.286       .  A
O1420      C1441   1.289       .  A
O1421     Zr1431   2.423       .  S
O1421      C1440   1.286       .  A
O1422     Zr1430   2.400       .  S
O1422      C1441   1.268       .  A
O1423      C1440   1.299       .  A
O1424     Zr1432   2.463       .  S
O1424      C1439   1.288       .  A
O1425     Zr1430   2.389       .  S
O1425     Zr1432   2.345       .  S
O1426     Zr1432   2.383       .  S
O1427     Zr1430   2.413       .  S
O1427     Zr1447   2.398       .  S
O1427      H1464   0.966       .  S
O1428     Zr1431   2.387       .  S
Zr1429     O1454   2.444   1_565  S
Zr1429     O1448   2.427       .  S
Zr1429     O1456   2.399       .  S
Zr1429     O1444   2.388       .  S
Zr1429     O1435   2.401       .  S
Zr1429     O1436   2.404       .  S
Zr1429     O1437   2.366       .  S
Zr1429     O1438   2.369       .  S
Zr1430     O1449   2.434       .  S
Zr1430     O1442   2.434       .  S
Zr1430     O1443   2.433       .  S
Zr1430     O1436   2.394       .  S
Zr1430     O1437   2.364       .  S
Zr1431     O1433   2.435       .  S
Zr1431     O1455   2.436       .  S
Zr1431     O1457   2.481       .  S
Zr1432     O1458   2.435       .  S
Zr1432     O1459   2.435       .  S
Zr1432     O1434   2.437       .  S
Zr1432     O1435   2.396       .  S
Zr1432     O1436   2.422       .  S
O1433      H1470   0.990       .  S
O1434      H1465   0.990       .  S
O1434      H1479   0.990       .  S
O1436      H1462   0.966       .  S
O1437     Zr1447   2.366       .  S
O1438     Zr1447   2.396       .  S
C1439      C2116   1.488       .  S
C1440      C2106   1.496       .  S
C1441      C2099   1.486       .  S
O1442      H1478   0.990       .  S
O1443      C1445   1.285       .  A
O1444      C1445   1.274       .  A
C1445      C2249   1.450       .  S
O1446     Zr1447   2.439       .  S
O1446      H1475   0.990       .  S
Zr1447     O1450   2.438       .  S
Zr1447     O1452   2.410       .  S
O1448      C1453   1.285       .  A
O1449      H1466   0.990       .  S
O1449      H1481   0.990       .  S
O1450      H1467   0.990       .  S
O1451      H1471   0.990       .  S
O1451      H1480   0.990       .  S
O1452      C1453   1.280       .  A
C1453      C2089   1.477       .  S
O1454      H1473   0.990       .  S
O1454      H1477   0.990   1_545  S
O1455      H1469   0.990       .  S
O1455      H1476   0.990       .  S
O1457      C1460   1.290       .  A
O1458      H1468   0.990       .  S
O1459      H1472   0.990       .  S
C1460      C2189   1.493   1_565  S
Zr1483     O1484   2.437       .  S
Zr1483     O1485   2.421       .  S
Zr1483     O1486   2.479       .  S
Zr1483     O1491   2.398       .  S
Zr1483     O1493   2.412       .  S
O1484      H1540   0.990       .  S
O1484      H1548   0.990       .  S
O1485      C1505   1.285       .  A
O1486      C1507   1.296       .  A
O1487     Zr1497   2.403       .  S
O1487      C1506   1.269       .  A
O1488     Zr1496   2.420       .  S
O1488      C1507   1.285       .  A
O1489      C1506   1.288       .  A
O1490     Zr1498   2.460       .  S
O1491     Zr1496   2.414       .  S
O1492     Zr1497   2.396       .  S
O1492     Zr1498   2.346       .  S
O1492      H1527   0.964       .  S
O1493     Zr1496   2.418       .  S
O1493     Zr1513   2.362       .  S
O1493      H1530   0.963       .  S
O1494     Zr1497   2.393   1_554  S
Zr1495     O1520   2.442   1_545  S
Zr1495     O1514   2.436   1_556  S
Zr1495     O1522   2.370       .  S
Zr1495     O1501   2.405       .  S
Zr1495     O1504   2.371       .  S
Zr1496     O1515   2.435       .  S
Zr1496     O1508   2.435       .  S
Zr1496     O1509   2.495       .  S
Zr1496     O1502   2.379       .  S
Zr1496     O1503   2.391       .  S
Zr1497     O1499   2.439       .  S
Zr1497     O1521   2.442       .  S
Zr1497     O1523   2.420       .  S
Zr1497     O1501   2.383       .  S
Zr1497     O1504   2.376       .  S
Zr1498     O1524   2.435       .  S
Zr1498     O1525   2.435       .  S
Zr1498     O1501   2.419       .  S
O1499      H1536   0.990       .  S
O1500      H1531   0.990       .  S
O1500      H1545   0.990       .  S
O1502      H1528   0.965       .  S
O1503     Zr1513   2.394       .  S
O1504      H1529   0.966       .  S
C1506      C2056   1.493       .  S
C1507      C2066   1.486       .  S
O1508      H1544   0.990       .  S
O1509      C1511   1.295   1_545  A
O1510      C1511   1.279       .  A
C1511      C2149   1.494       .  S
O1512     Zr1513   2.439       .  S
O1512      H1541   0.990       .  S
Zr1513     O1516   2.436       .  S
Zr1513     O1518   2.402       .  S
O1514      C1519   1.286       .  A
O1515      H1532   0.990       .  S
O1515      H1547   0.990       .  S
O1516      H1533   0.990       .  S
O1517      H1537   0.990   1_554  S
O1517      H1546   0.990   1_554  S
O1520      H1539   0.990   1_565  S
O1520      H1543   0.990       .  S
O1521      H1535   0.989       .  S
O1521      H1542   0.987       .  S
O1522      C1526   1.272       .  A
O1523      C1526   1.280       .  A
O1524      H1534   0.990       .  S
O1525      H1538   0.990       .  S
C1526      C2199   1.429       .  S
Zr1549     O1550   2.434       .  S
Zr1549     O1551   2.424       .  S
Zr1549     O1552   2.479       .  S
Zr1549     O1555   2.503       .  S
Zr1549     O1557   2.381       .  S
Zr1549     O1558   2.404       .  S
Zr1549     O1559   2.423       .  S
Zr1549     O1560   2.380       .  S
O1550      H1606   0.990       .  S
O1550      H1614   0.990       .  S
O1551      C1571   1.287       .  A
O1552      C1573   1.289       .  A
O1553     Zr1563   2.412       .  S
O1553      C1572   1.284       .  A
O1554     Zr1562   2.403       .  S
O1554      C1573   1.269       .  A
O1555      C1572   1.302       .  A
O1556     Zr1564   2.469       .  S
O1556      C1571   1.290       .  A
O1557     Zr1562   2.396       .  S
O1557     Zr1564   2.345       .  S
O1558     Zr1563   2.409       .  S
O1558     Zr1564   2.381       .  S
O1558      H1593   0.967       .  S
O1559     Zr1562   2.422       .  S
O1559     Zr1579   2.392       .  S
O1559      H1596   0.966       .  S
O1560     Zr1563   2.389       .  S
O1560     Zr1579   2.363       .  S
Zr1561     O1586   2.445       .  S
Zr1561     O1580   2.445       .  S
Zr1561     O1588   2.401       .  S
Zr1561     O1576   2.363       .  S
Zr1561     O1567   2.402       .  S
Zr1561     O1568   2.404       .  S
Zr1561     O1569   2.365       .  S
Zr1561     O1570   2.364       .  S
Zr1562     O1581   2.435       .  S
Zr1562     O1574   2.435       .  S
Zr1562     O1575   2.461       .  S
Zr1562     O1568   2.391       .  S
Zr1562     O1569   2.369       .  S
Zr1563     O1565   2.435       .  S
Zr1563     O1587   2.437       .  S
Zr1563     O1589   2.480       .  S
Zr1563     O1567   2.370       .  S
Zr1563     O1570   2.394       .  S
Zr1564     O1590   2.435       .  S
Zr1564     O1591   2.435       .  S
Zr1564     O1566   2.437       .  S
Zr1564     O1567   2.403       .  S
Zr1564     O1568   2.420       .  S
O1565      H1602   0.990       .  S
O1566      H1597   0.990       .  S
O1566      H1611   0.990       .  S
O1568      H1594   0.966       .  S
O1569     Zr1579   2.371       .  S
O1570     Zr1579   2.395       .  S
O1570      H1595   0.966       .  S
C1571      C2209   1.494       .  S
C1572      C2059   1.497       .  S
C1573      C2069   1.484       .  S
O1574      H1610   0.990       .  S
O1575      C1577   1.289       .  A
O1576      C1577   1.273       .  A
C1577      C2029   1.466       .  S
O1578     Zr1579   2.439       .  S
O1578      H1607   0.990       .  S
Zr1579     O1582   2.438       .  S
Zr1579     O1583   2.439       .  S
Zr1579     O1584   2.396       .  S
O1580      C1585   1.287       .  A
O1581      H1598   0.990       .  S
O1581      H1613   0.990       .  S
O1582      H1599   0.990       .  S
O1583      H1603   0.990       .  S
O1583      H1612   0.990       .  S
O1584      C1585   1.278       .  A
C1585      C2046   1.478       .  S
O1586      H1605   0.987   1_655  S
O1586      H1609   0.990       .  S
O1587      H1601   0.990       .  S
O1587      H1608   0.990       .  S
O1588      C1592   1.275       .  A
O1589      C1592   1.289       .  A
O1590      H1600   0.990       .  S
O1591      H1604   0.990       .  S
C1592      C2036   1.492   1_655  S
Zr1615     O1616   2.437       .  S
Zr1615     O1617   2.420       .  S
Zr1615     O1618   2.486       .  S
Zr1615     O1621   2.469       .  S
Zr1615     O1623   2.397       .  S
Zr1615     O1624   2.407       .  S
Zr1615     O1625   2.408       .  S
Zr1615     O1626   2.416       .  S
O1616      H1672   0.990       .  S
O1616      H1680   0.990       .  S
O1617      C1637   1.285       .  A
O1618      C1639   1.297       .  A
O1619     Zr1629   2.408       .  S
O1619      C1638   1.270       .  A
O1620     Zr1628   2.416       .  S
O1620      C1639   1.284       .  A
O1621      C1638   1.286       .  A
O1622     Zr1630   2.465       .  S
O1622      C1637   1.289       .  A
O1623     Zr1628   2.411       .  S
O1623     Zr1630   2.383       .  S
O1624     Zr1629   2.399       .  S
O1624     Zr1630   2.343       .  S
O1624      H1659   0.963       .  S
O1625     Zr1628   2.415       .  S
O1625     Zr1645   2.357       .  S
O1625      H1662   0.963       .  S
O1626     Zr1629   2.412       .  S
O1626     Zr1645   2.391       .  S
Zr1627     O1652   2.442   1_455  S
Zr1627     O1646   2.444       .  S
Zr1627     O1654   2.373       .  S
Zr1627     O1642   2.401   1_455  S
Zr1627     O1633   2.407       .  S
Zr1627     O1634   2.401       .  S
Zr1627     O1635   2.363       .  S
Zr1627     O1636   2.370       .  S
Zr1628     O1647   2.435       .  S
Zr1628     O1640   2.435       .  S
Zr1628     O1641   2.483       .  S
Zr1628     O1634   2.381       .  S
Zr1628     O1635   2.390       .  S
Zr1629     O1631   2.438       .  S
Zr1629     O1653   2.443       .  S
Zr1629     O1655   2.446       .  S
Zr1629     O1633   2.388       .  S
Zr1629     O1636   2.372       .  S
Zr1630     O1656   2.436       .  S
Zr1630     O1657   2.435       .  S
Zr1630     O1632   2.437       .  S
Zr1630     O1633   2.424       .  S
Zr1630     O1634   2.391       .  S
O1631      H1668   0.990       .  S
O1632      H1663   0.990       .  S
O1632      H1677   0.990       .  S
O1634      H1660   0.965       .  S
O1635     Zr1645   2.393       .  S
O1636     Zr1645   2.359       .  S
O1636      H1661   0.965       .  S
C1637      C2259   1.491       .  S
C1638      C2109   1.492       .  S
C1639      C2096   1.487       .  S
O1640      H1676   0.990       .  S
O1641      C1643   1.292   1_455  A
O1642      C1643   1.279       .  A
C1643      C2016   1.489       .  S
O1644     Zr1645   2.439       .  S
O1644      H1673   0.990       .  S
Zr1645     O1648   2.437       .  S
Zr1645     O1649   2.440       .  S
Zr1645     O1650   2.398       .  S
O1646      C1651   1.287       .  A
O1647      H1664   0.990       .  S
O1647      H1679   0.990       .  S
O1648      H1665   0.990       .  S
O1649      H1669   0.990       .  S
O1649      H1678   0.990       .  S
O1650      C1651   1.278       .  A
C1651      C2049   1.477       .  S
O1652      H1671   0.990       .  S
O1652      H1675   0.990       .  S
O1653      H1667   0.989       .  S
O1653      H1674   0.988       .  S
O1654      C1658   1.275       .  A
O1655      C1658   1.287       .  A
O1656      H1666   0.990       .  S
O1657      H1670   0.990       .  S
C1658      C2006   1.467       .  S
Zr1681     O1682   2.437       .  S
Zr1681     O1683   2.420       .  S
Zr1681     O1684   2.484       .  S
Zr1681     O1689   2.398       .  S
Zr1681     O1691   2.408       .  S
O1682      H1738   0.990       .  S
O1682      H1746   0.990       .  S
O1683      C1703   1.285       .  A
O1684      C1705   1.297       .  A
O1685     Zr1695   2.408       .  S
O1685      C1704   1.271       .  A
O1686     Zr1694   2.413       .  S
O1686      C1705   1.284       .  A
O1687      C1704   1.286       .  A
O1688     Zr1696   2.460       .  S
O1689     Zr1694   2.411       .  S
O1690     Zr1695   2.398       .  S
O1690     Zr1696   2.346       .  S
O1690      H1725   0.965       .  S
O1691     Zr1694   2.417       .  S
O1691     Zr1711   2.361       .  S
O1691      H1728   0.964       .  S
O1692     Zr1695   2.413       .  S
Zr1693     O1718   2.440   1_655  S
Zr1693     O1712   2.438   1_556  S
Zr1693     O1720   2.371       .  S
Zr1693     O1699   2.407       .  S
Zr1693     O1702   2.370       .  S
Zr1694     O1713   2.435       .  S
Zr1694     O1706   2.435       .  S
Zr1694     O1707   2.483       .  S
Zr1694     O1700   2.385       .  S
Zr1694     O1701   2.388       .  S
Zr1695     O1697   2.438       .  S
Zr1695     O1719   2.442       .  S
Zr1695     O1721   2.450       .  S
Zr1695     O1699   2.387       .  S
Zr1695     O1702   2.370       .  S
Zr1696     O1722   2.435       .  S
Zr1696     O1723   2.435       .  S
Zr1696     O1699   2.423       .  S
O1697      H1734   0.990       .  S
O1698      H1729   0.990       .  S
O1698      H1743   0.990       .  S
O1700      H1726   0.965       .  S
O1701     Zr1711   2.390       .  S
O1702      H1727   0.965       .  S
C1704      C1986   1.491       .  S
C1705      C1996   1.489       .  S
O1706      H1742   0.990       .  S
O1707      C1709   1.291       .  A
O1708      C1709   1.276       .  A
C1709      C2119   1.492   1_655  S
O1710     Zr1711   2.440       .  S
O1710      H1739   0.990       .  S
Zr1711     O1714   2.436       .  S
Zr1711     O1716   2.404       .  S
O1712      C1717   1.286       .  A
O1713      H1730   0.990       .  S
O1713      H1745   0.990       .  S
O1714      H1731   0.990       .  S
O1715      H1735   0.990       .  S
O1715      H1744   0.990   1_554  S
O1718      H1737   0.990   1_455  S
O1718      H1741   0.990       .  S
O1719      H1733   0.989       .  S
O1719      H1740   0.988       .  S
O1720      C1724   1.275       .  A
O1721      C1724   1.288       .  A
O1722      H1732   0.990       .  S
O1723      H1736   0.990       .  S
C1724      C2009   1.468       .  S
Zr1747     O1748   2.434       .  S
Zr1747     O1749   2.424       .  S
Zr1747     O1750   2.488       .  S
Zr1747     O1755   2.375       .  S
Zr1747     O1756   2.405       .  S
Zr1747     O1757   2.422       .  S
O1748      H1804   0.990       .  S
O1748      H1812   0.990       .  S
O1749      C1769   1.287       .  A
O1750      C1771   1.289       .  A
O1751     Zr1761   2.417       .  S
O1751      C1770   1.285       .  A
O1752     Zr1760   2.401       .  S
O1752      C1771   1.269       .  A
O1753      C1770   1.301       .  A
O1754     Zr1762   2.473       .  S
O1754      C1769   1.291       .  A
O1755     Zr1760   2.390       .  S
O1755     Zr1762   2.342       .  S
O1756     Zr1762   2.383       .  S
O1757     Zr1760   2.414       .  S
O1757     Zr1777   2.398       .  S
O1757      H1794   0.966       .  S
O1758     Zr1761   2.387       .  S
Zr1759     O1784   2.444   1_455  S
Zr1759     O1778   2.432       .  S
Zr1759     O1786   2.398   1_455  S
Zr1759     O1774   2.382       .  S
Zr1759     O1765   2.402       .  S
Zr1759     O1766   2.406       .  S
Zr1759     O1767   2.367       .  S
Zr1759     O1768   2.366       .  S
Zr1760     O1779   2.435       .  S
Zr1760     O1772   2.434       .  S
Zr1760     O1773   2.438       .  S
Zr1760     O1766   2.393       .  S
Zr1760     O1767   2.363       .  S
Zr1761     O1763   2.436       .  S
Zr1761     O1785   2.437       .  S
Zr1761     O1787   2.482       .  S
Zr1762     O1788   2.435       .  S
Zr1762     O1789   2.434       .  S
Zr1762     O1764   2.437       .  S
Zr1762     O1765   2.400       .  S
Zr1762     O1766   2.426       .  S
O1763      H1800   0.990       .  S
O1764      H1795   0.990       .  S
O1764      H1809   0.990       .  S
O1766      H1792   0.967       .  S
O1767     Zr1777   2.366       .  S
O1768     Zr1777   2.398       .  S
C1769      C2159   1.496       .  S
C1770      C1966   1.497       .  S
C1771      C1956   1.488       .  S
O1772      H1808   0.990       .  S
O1773      C1775   1.287       .  A
O1774      C1775   1.273       .  A
C1775      C2026   1.458       .  S
O1776     Zr1777   2.439       .  S
O1776      H1805   0.990       .  S
Zr1777     O1780   2.438       .  S
Zr1777     O1782   2.405       .  S
O1778      C1783   1.285       .  A
O1779      H1796   0.990       .  S
O1779      H1811   0.990       .  S
O1780      H1797   0.990       .  S
O1781      H1801   0.990       .  S
O1781      H1810   0.990       .  S
O1782      C1783   1.279       .  A
C1783      C1979   1.477       .  S
O1784      H1803   0.990       .  S
O1784      H1807   0.990       .  S
O1785      H1799   0.990       .  S
O1785      H1806   0.990       .  S
O1787      C1790   1.291   1_455  A
O1788      H1798   0.990       .  S
O1789      H1802   0.990       .  S
C1790      C2079   1.494       .  S
Zr1813     O1814   2.437       .  S
Zr1813     O1815   2.424       .  S
Zr1813     O1816   2.484       .  S
Zr1813     O1819   2.481       .  S
Zr1813     O1821   2.400       .  S
Zr1813     O1822   2.403       .  S
Zr1813     O1823   2.414       .  S
Zr1813     O1824   2.412       .  S
O1814      H1870   0.990       .  S
O1814      H1878   0.990       .  S
O1815      C1835   1.286       .  A
O1816      C1837   1.298       .  A
O1817     Zr1827   2.401       .  S
O1817      C1836   1.268       .  A
O1818     Zr1826   2.427       .  S
O1818      C1837   1.286       .  A
O1819      C1836   1.289       .  A
O1820     Zr1828   2.456       .  S
O1820      C1835   1.287       .  A
O1821     Zr1826   2.419       .  S
O1821     Zr1828   2.383       .  S
O1822     Zr1827   2.396       .  S
O1822     Zr1828   2.345       .  S
O1822      H1857   0.964       .  S
O1823     Zr1826   2.421       .  S
O1823     Zr1843   2.359       .  S
O1823      H1860   0.963       .  S
O1824     Zr1827   2.408       .  S
O1824     Zr1843   2.392       .  S
Zr1825     O1850   2.437       .  S
Zr1825     O1844   2.420       .  S
Zr1825     O1852   2.380       .  S
Zr1825     O1840   2.399       .  S
Zr1825     O1831   2.401       .  S
Zr1825     O1832   2.400       .  S
Zr1825     O1833   2.359       .  S
Zr1825     O1834   2.374       .  S
Zr1826     O1845   2.435       .  S
Zr1826     O1838   2.435       .  S
Zr1826     O1839   2.508       .  S
Zr1826     O1832   2.380       .  S
Zr1826     O1833   2.392       .  S
Zr1827     O1829   2.436       .  S
Zr1827     O1851   2.442       .  S
Zr1827     O1853   2.427       .  S
Zr1827     O1831   2.383       .  S
Zr1827     O1834   2.368       .  S
Zr1828     O1854   2.436       .  S
Zr1828     O1855   2.439       .  S
Zr1828     O1830   2.437       .  S
Zr1828     O1831   2.418       .  S
Zr1828     O1832   2.387       .  S
O1829      H1866   0.990       .  S
O1830      H1861   0.990       .  S
O1830      H1875   0.990       .  S
O1832      H1858   0.964       .  S
O1833     Zr1843   2.396       .  S
O1834     Zr1843   2.355       .  S
O1834      H1859   0.966       .  S
C1835      C2039   1.488       .  S
C1836      C1969   1.492       .  S
C1837      C1959   1.488       .  S
O1838      H1874   0.990       .  S
O1839      C1841   1.297       .  A
O1840      C1841   1.280       .  A
C1841      C2299   1.502       .  S
O1842     Zr1843   2.439       .  S
O1842      H1871   0.990       .  S
Zr1843     O1846   2.436       .  S
Zr1843     O1847   2.441       .  S
Zr1843     O1848   2.407       .  S
O1844      C1849   1.283       .  A
O1845      H1862   0.990       .  S
O1845      H1877   0.990       .  S
O1846      H1863   0.990       .  S
O1847      H1867   0.990       .  S
O1847      H1876   0.990       .  S
O1848      C1849   1.279       .  A
C1849      C1946   1.474       .  S
O1850      H1869   0.990       .  S
O1850      H1873   0.989       .  S
O1851      H1865   0.989       .  S
O1851      H1872   0.987       .  S
O1852      C1856   1.268       .  A
O1853      C1856   1.282       .  A
O1854      H1864   0.990       .  S
O1855      H1868   0.990       .  S
C1856      C2169   1.437       .  S
Zr1879     O1880   2.434       .  S
Zr1879     O1881   2.418       .  S
Zr1879     O1882   2.476       .  S
Zr1879     O1885   2.489       .  S
Zr1879     O1887   2.378       .  S
Zr1879     O1888   2.404       .  S
Zr1879     O1889   2.420       .  S
Zr1879     O1890   2.384       .  S
O1880      H1936   0.990       .  S
O1880      H1944   0.990       .  S
O1881      C1901   1.286       .  A
O1882      C1903   1.289       .  A
O1883     Zr1893   2.424       .  S
O1883      C1902   1.286       .  A
O1884     Zr1892   2.400       .  S
O1884      C1903   1.269       .  A
O1885      C1902   1.299       .  A
O1886     Zr1894   2.465       .  S
O1886      C1901   1.289       .  A
O1887     Zr1892   2.391       .  S
O1887     Zr1894   2.349       .  S
O1888     Zr1893   2.406       .  S
O1888     Zr1894   2.384       .  S
O1888      H1923   0.966       .  S
O1889     Zr1892   2.415       .  S
O1889     Zr1909   2.397       .  S
O1889      H1926   0.966       .  S
O1890     Zr1893   2.386       .  S
O1890     Zr1909   2.363       .  S
Zr1891     O1916   2.442       .  S
Zr1891     O1910   2.427       .  S
Zr1891     O1918   2.394       .  S
Zr1891     O1906   2.385       .  S
Zr1891     O1897   2.398       .  S
Zr1891     O1898   2.403       .  S
Zr1891     O1899   2.364       .  S
Zr1891     O1900   2.371       .  S
Zr1892     O1911   2.436       .  S
Zr1892     O1904   2.434       .  S
Zr1892     O1905   2.442       .  S
Zr1892     O1898   2.395       .  S
Zr1892     O1899   2.361       .  S
Zr1893     O1895   2.435       .  S
Zr1893     O1917   2.437       .  S
Zr1893     O1919   2.480       .  S
Zr1893     O1897   2.373       .  S
Zr1893     O1900   2.392       .  S
Zr1894     O1920   2.435       .  S
Zr1894     O1921   2.435       .  S
Zr1894     O1896   2.437       .  S
Zr1894     O1897   2.396       .  S
Zr1894     O1898   2.428       .  S
O1895      H1932   0.990       .  S
O1896      H1927   0.990       .  S
O1896      H1941   0.990       .  S
O1898      H1924   0.967       .  S
O1899     Zr1909   2.364       .  S
O1900     Zr1909   2.394       .  S
O1900      H1925   0.967       .  S
C1901      C2019   1.488       .  S
C1902      C1989   1.496       .  S
C1903      C1999   1.485       .  S
O1904      H1940   0.989       .  S
O1905      C1907   1.287       .  A
O1906      C1907   1.276       .  A
C1907      C2129   1.474       .  S
O1908     Zr1909   2.439       .  S
O1908      H1937   0.990       .  S
Zr1909     O1912   2.438       .  S
Zr1909     O1913   2.439       .  S
Zr1909     O1914   2.402       .  S
O1910      C1915   1.284       .  A
O1911      H1928   0.990       .  S
O1911      H1943   0.990       .  S
O1912      H1929   0.990       .  S
O1913      H1933   0.990       .  S
O1913      H1942   0.990       .  S
O1914      C1915   1.279       .  A
C1915      C1949   1.474       .  S
O1916      H1935   0.990       .  S
O1916      H1939   0.990       .  S
O1917      H1931   0.990       .  S
O1917      H1938   0.990       .  S
O1918      C1922   1.276       .  A
O1919      C1922   1.290       .  A
O1920      H1930   0.990       .  S
O1921      H1934   0.990       .  S
C1922      C2239   1.488       .  S
C1945      C1946   1.403       .  A
C1945      C1950   1.391       .  A
C1945      H1951   1.083       .  S
C1946      C1947   1.407       .  A
C1947      C1948   1.394       .  A
C1947      H1952   1.083       .  S
C1948      C1949   1.403       .  A
C1948      H1953   1.083       .  S
C1949      C1950   1.407       .  A
C1950      H1954   1.083       .  S
C1955      C1956   1.410       .  A
C1955      C1960   1.401       .  A
C1955      H1961   1.083       .  S
C1956      C1957   1.405       .  A
C1957      C1958   1.402       .  A
C1957      H1962   1.082       .  S
C1958      C1959   1.410       .  A
C1958      H1963   1.083       .  S
C1959      C1960   1.405       .  A
C1960      H1964   1.083       .  S
C1965      C1966   1.405       .  A
C1965      C1970   1.408       .  A
C1965      H1971   1.083       .  S
C1966      C1967   1.413       .  A
C1967      C1968   1.399       .  A
C1967      H1972   1.083       .  S
C1968      C1969   1.402       .  A
C1968      H1973   1.082       .  S
C1969      C1970   1.413       .  A
C1970      H1974   1.083       .  S
C1975      C1976   1.408       .  A
C1975      C1980   1.393       .  A
C1975      H1981   1.083       .  S
C1977      C1978   1.396   1_554  A
C1977      H1982   1.083   1_554  S
C1978      H1983   1.083       .  S
C1979      C1980   1.403   1_455  A
C1980      H1984   1.083       .  S
C1985      C1986   1.403       .  A
C1985      C1990   1.397       .  A
C1985      H1991   1.083       .  S
C1986      C1987   1.412       .  A
C1987      C1988   1.407       .  A
C1987      H1992   1.082       .  S
C1988      C1989   1.406       .  A
C1988      H1993   1.083       .  S
C1989      C1990   1.413       .  A
C1990      H1994   1.083       .  S
C1995      C1996   1.411       .  A
C1995      C2000   1.396       .  A
C1995      H2001   1.083       .  S
C1996      C1997   1.405       .  A
C1997      C1998   1.404       .  A
C1997      H2002   1.083       .  S
C1998      C1999   1.411       .  A
C1998      H2003   1.083       .  S
C1999      C2000   1.402       .  A
C2000      H2004   1.082       .  S
C2005      C2006   1.398       .  A
C2005      C2010   1.390       .  A
C2005      H2011   1.083       .  S
C2006      C2007   1.410   1_455  A
C2007      C2008   1.390       .  A
C2007      H2012   1.083       .  S
C2008      C2009   1.398       .  A
C2008      H2013   1.083       .  S
C2009      C2010   1.410   1_655  A
C2010      H2014   1.083       .  S
C2015      C2016   1.407       .  A
C2015      C2020   1.394       .  A
C2015      H2021   1.083       .  S
C2016      C2017   1.409       .  A
C2017      C2018   1.411       .  A
C2017      H2022   1.083       .  S
C2018      C2019   1.409       .  A
C2018      H2023   1.083       .  S
C2019      C2020   1.404       .  A
C2020      H2024   1.084       .  S
C2025      C2026   1.410   1_655  A
C2025      C2030   1.403       .  A
C2025      H2031   1.083       .  S
C2026      C2027   1.393       .  A
C2027      C2028   1.380       .  A
C2027      H2032   1.084       .  S
C2028      C2029   1.407   1_455  A
C2028      H2033   1.081       .  S
C2029      C2030   1.401       .  A
C2030      H2034   1.083       .  S
C2035      C2036   1.409       .  A
C2035      C2040   1.412       .  A
C2035      H2041   1.083       .  S
C2036      C2037   1.408       .  A
C2037      C2038   1.392       .  A
C2037      H2042   1.083       .  S
C2038      C2039   1.403       .  A
C2038      H2043   1.084       .  S
C2039      C2040   1.409       .  A
C2040      H2044   1.083       .  S
C2045      C2046   1.409       .  A
C2045      C2050   1.395       .  A
C2045      H2051   1.083       .  S
C2046      C2047   1.402   1_655  A
C2047      C2048   1.396       .  A
C2047      H2052   1.083       .  S
C2048      C2049   1.409       .  A
C2048      H2053   1.083       .  S
C2049      C2050   1.402   1_455  A
C2050      H2054   1.083       .  S
C2055      C2056   1.403       .  A
C2055      C2060   1.399       .  A
C2055      H2061   1.083       .  S
C2056      C2057   1.414       .  A
C2057      C2058   1.408       .  A
C2057      H2062   1.082       .  S
C2058      C2059   1.405       .  A
C2058      H2063   1.083       .  S
C2059      C2060   1.414       .  A
C2060      H2064   1.083       .  S
C2065      C2066   1.410       .  A
C2065      C2070   1.399       .  A
C2065      H2071   1.083       .  S
C2066      C2067   1.405       .  A
C2067      C2068   1.401       .  A
C2067      H2072   1.083       .  S
C2068      C2069   1.410       .  A
C2068      H2073   1.083       .  S
C2069      C2070   1.404       .  A
C2070      H2074   1.082       .  S
C2075      C2076   1.410       .  A
C2075      C2080   1.413       .  A
C2075      H2081   1.083       .  S
C2077      C2078   1.392       .  A
C2077      H2082   1.083       .  S
C2078      H2083   1.083       .  S
C2079      C2080   1.410       .  A
C2080      H2084   1.083       .  S
C2085      C2086   1.407       .  A
C2085      C2090   1.393       .  A
C2085      H2091   1.083       .  S
C2087      C2088   1.396   1_554  A
C2087      H2092   1.083   1_554  S
C2088      H2093   1.083       .  S
C2089      C2090   1.403   1_565  A
C2090      H2094   1.083       .  S
C2095      C2096   1.405       .  A
C2095      C2100   1.402       .  A
C2095      H2101   1.083       .  S
C2096      C2097   1.410       .  A
C2097      C2098   1.399       .  A
C2097      H2102   1.083       .  S
C2098      C2099   1.404       .  A
C2098      H2103   1.081       .  S
C2099      C2100   1.410       .  A
C2100      H2104   1.083       .  S
C2105      C2106   1.412       .  A
C2105      C2110   1.399       .  A
C2105      H2111   1.083       .  S
C2106      C2107   1.406       .  A
C2107      C2108   1.407       .  A
C2107      H2112   1.083       .  S
C2108      C2109   1.412       .  A
C2108      H2113   1.082       .  S
C2109      C2110   1.403       .  A
C2110      H2114   1.083       .  S
C2115      C2116   1.403       .  A
C2115      C2120   1.394       .  A
C2115      H2121   1.084       .  S
C2116      C2117   1.409       .  A
C2117      C2118   1.412       .  A
C2117      H2122   1.083       .  S
C2118      C2119   1.410       .  A
C2118      H2123   1.083       .  S
C2119      C2120   1.408       .  A
C2120      H2124   1.083       .  S
C2125      C2126   1.400       .  A
C2125      C2130   1.393       .  A
C2125      H2131   1.083       .  S
C2126      C2127   1.409       .  A
C2127      C2128   1.393       .  A
C2127      H2132   1.083       .  S
C2128      C2129   1.400       .  A
C2128      H2133   1.083       .  S
C2129      C2130   1.410       .  A
C2130      H2134   1.083       .  S
C2135      C2136   1.409       .  A
C2135      C2140   1.411       .  A
C2135      H2141   1.083       .  S
C2136      C2137   1.406       .  A
C2138      H2143   1.083       .  S
C2139      C2140   1.409       .  A
C2140      H2144   1.083       .  S
C2145      C2146   1.404       .  A
C2145      C2150   1.395       .  A
C2145      H2151   1.084       .  S
C2146      C2147   1.410       .  A
C2147      C2148   1.414       .  A
C2147      H2152   1.083       .  S
C2148      C2149   1.410       .  A
C2148      H2153   1.083       .  S
C2149      C2150   1.408       .  A
C2150      H2154   1.083       .  S
C2155      C2156   1.409       .  A
C2155      C2160   1.396       .  A
C2155      H2161   1.083       .  S
C2156      C2157   1.410       .  A
C2157      C2158   1.415       .  A
C2157      H2162   1.083       .  S
C2158      C2159   1.411       .  A
C2158      H2163   1.083       .  S
C2159      C2160   1.404       .  A
C2160      H2164   1.083       .  S
C2165      C2166   1.397       .  A
C2165      C2170   1.377       .  A
C2165      H2171   1.084       .  S
C2166      C2167   1.399       .  A
C2167      C2168   1.397       .  A
C2167      H2172   1.083       .  S
C2168      C2169   1.405       .  A
C2168      H2173   1.083       .  S
C2169      C2170   1.394       .  A
C2170      H2174   1.085       .  S
C2175      C2176   1.410       .  A
C2175      C2180   1.394       .  A
C2175      H2181   1.083       .  S
C2176      C2177   1.401       .  A
C2177      C2178   1.395       .  A
C2177      H2182   1.083       .  S
C2178      C2179   1.410       .  A
C2178      H2183   1.083       .  S
C2179      C2180   1.401       .  A
C2180      H2184   1.083       .  S
C2185      C2186   1.410       .  A
C2185      C2190   1.412       .  A
C2185      H2191   1.083       .  S
C2187      C2188   1.391       .  A
C2187      H2192   1.083       .  S
C2188      H2193   1.083       .  S
C2189      C2190   1.410       .  A
C2190      H2194   1.083       .  S
C2195      C2196   1.400       .  A
C2195      C2200   1.398   1_565  A
C2195      H2201   1.083       .  S
C2196      C2197   1.396       .  A
C2197      C2198   1.374   1_565  A
C2197      H2202   1.084       .  S
C2198      C2199   1.393       .  A
C2198      H2203   1.085       .  S
C2199      C2200   1.402       .  A
C2200      H2204   1.083       .  S
C2205      C2206   1.408       .  A
C2205      C2210   1.396       .  A
C2205      H2211   1.083       .  S
C2206      C2207   1.410       .  A
C2207      C2208   1.414       .  A
C2207      H2212   1.083       .  S
C2208      C2209   1.410       .  A
C2208      H2213   1.083       .  S
C2209      C2210   1.404       .  A
C2210      H2214   1.083       .  S
C2215      C2216   1.413       .  A
C2215      C2220   1.399       .  A
C2215      H2221   1.083       .  S
C2216      C2217   1.405       .  A
C2217      C2218   1.407       .  A
C2217      H2222   1.083       .  S
C2218      C2219   1.413       .  A
C2218      H2223   1.082       .  S
C2219      C2220   1.402       .  A
C2220      H2224   1.082       .  S
C2225      C2226   1.404       .  A
C2225      C2230   1.402       .  A
C2225      H2231   1.083       .  S
C2226      C2227   1.411       .  A
C2227      C2228   1.398       .  A
C2227      H2232   1.083       .  S
C2228      C2229   1.403       .  A
C2228      H2233   1.082       .  S
C2229      C2230   1.411       .  A
C2230      H2234   1.083       .  S
C2235      C2236   1.409       .  A
C2235      C2240   1.411       .  A
C2235      H2241   1.083       .  S
C2236      C2237   1.403       .  A
C2237      C2238   1.391       .  A
C2237      H2242   1.084       .  S
C2238      C2239   1.407       .  A
C2238      H2243   1.083       .  S
C2239      C2240   1.409       .  A
C2240      H2244   1.083       .  S
C2245      C2246   1.402       .  A
C2245      C2250   1.404   1_545  A
C2245      H2251   1.083       .  S
C2246      C2247   1.401   1_545  A
C2247      C2248   1.379       .  A
C2247      H2252   1.082       .  S
C2248      C2249   1.394       .  A
C2248      H2253   1.085       .  S
C2249      C2250   1.407       .  A
C2250      H2254   1.083       .  S
C2255      C2256   1.410       .  A
C2255      C2260   1.413       .  A
C2255      H2261   1.083       .  S
C2256      C2257   1.407       .  A
C2257      C2258   1.393       .  A
C2257      H2262   1.083       .  S
C2258      C2259   1.404       .  A
C2258      H2263   1.083       .  S
C2259      C2260   1.409       .  A
C2260      H2264   1.083       .  S
C2265      C2266   1.408       .  A
C2265      C2270   1.394       .  A
C2265      H2271   1.083       .  S
C2266      C2267   1.403   1_545  A
C2267      C2268   1.395       .  A
C2267      H2272   1.083       .  S
C2268      C2269   1.408       .  A
C2268      H2273   1.083       .  S
C2269      C2270   1.403   1_565  A
C2270      H2274   1.083       .  S
C2275      C2276   1.404       .  A
C2275      C2280   1.399       .  A
C2275      H2281   1.083       .  S
C2276      C2277   1.410       .  A
C2277      C2278   1.402       .  A
C2277      H2282   1.083       .  S
C2278      C2279   1.404       .  A
C2278      H2283   1.083       .  S
C2279      C2280   1.410       .  A
C2280      H2284   1.083       .  S
C2285      C2286   1.414       .  A
C2285      C2290   1.400       .  A
C2285      H2291   1.083       .  S
C2286      C2287   1.405       .  A
C2287      C2288   1.406       .  A
C2287      H2292   1.083       .  S
C2288      C2289   1.413       .  A
C2288      H2293   1.082       .  S
C2289      C2290   1.402       .  A
C2290      H2294   1.083       .  S
C2295      C2296   1.400       .  A
C2295      C2300   1.387       .  A
C2295      H2301   1.083       .  S
C2296      C2297   1.416       .  A
C2297      C2298   1.420       .  A
C2297      H2302   1.083       .  S
C2298      C2299   1.410       .  A
C2298      H2303   1.082       .  S
C2299      C2300   1.410       .  A
C2300      H2304   1.079       .  S
