geometry optimzed in LAMMPS
_audit_creation_date              2020-11-30 
_audit_creation_method            'lammps2cif' 
_symmetry_space_group_name_H-M    'P1' 
_symmetry_Int_Tables_number       1 
_symmetry_cell_setting            triclinic 
loop_ 
_symmetry_equiv_pos_as_xyz 
  x,y,z 
_cell_length_a                    36.79468366544515 
_cell_length_b                    36.95990121550043 
_cell_length_c                    39.50164597861289 
_cell_angle_alpha                 88.711641020682 
_cell_angle_beta                  91.43379172615239 
_cell_angle_gamma                 119.76772600964105 
loop_ 
_atom_site_label 
_atom_site_type_symbol 
_atom_site_fract_x 
_atom_site_fract_y 
_atom_site_fract_z 
_atom_site_charge 
O1          O  0.57227084  0.88782407  0.08389855    -0.82280
C2          C  0.46980584  0.86852333  0.17402093     0.97070
O3          O  0.46487005  0.87963356  0.14349687    -0.71400
O4          O  0.53164752  0.92317488  0.10186489    -0.74990
Al5        Al  0.48565850  0.86963295  0.10068736     1.48980
C6          C  0.54698476  0.94019187  0.12913651     0.92330
O7          O  0.56554670  0.85237994  0.17929814    -0.81210
O8          O  0.48252779  0.77305934  0.11491543    -0.74770
Al9        Al  0.56118757  0.86871491  0.13091547     1.90120
O10         O  0.51322176  0.79070881  0.17489543    -0.73840
O11         O  0.42065723  0.79054815  0.13515579    -0.73690
O12         O  0.47372829  0.83653803  0.18101589    -0.79350
O13         O  0.43440123  0.82240967  0.08753276    -0.77550
O14         O  0.50741131  0.84607698  0.12629405    -1.13680
O15         O  0.50826271  0.86080735  0.06149734    -0.72880
C16         C  0.54738779  0.87502068  0.05844458     0.97840
C17         C  0.54729681  0.81444724  0.18899718     0.94240
Al18       Al  0.47522689  0.80166186  0.14921992     1.55560
O19         O  0.56433460  0.92319774  0.14733592    -0.77500
C20         C  0.40804749  0.79901749  0.10823117     0.98400
C21         C  0.51915225  0.78175223  0.10484526     0.93280
O22         O  0.55387156  0.81517371  0.11354677    -0.82820
O23         O  0.35401311  0.46266920  0.08852483    -0.82280
C24         C  0.43124275  0.56759502  0.18604745     0.97070
O25         O  0.45232640  0.57198874  0.15913268    -0.71400
O26         O  0.43556508  0.50334766  0.13220087    -0.74990
Al27       Al  0.42964722  0.54549001  0.11530641     1.48980
C28         C  0.41740979  0.47438376  0.15276397     0.92330
O29         O  0.31253976  0.47558025  0.17471642    -0.81210
O30         O  0.34035622  0.56276808  0.10421990    -0.74770
Al31       Al  0.34026251  0.47604723  0.13170076     1.90120
O32         O  0.31707114  0.53487985  0.16522710    -0.73840
O33         O  0.41878435  0.61769322  0.13125896    -0.73690
O34         O  0.39658128  0.56748578  0.18519942    -0.79350
O35         O  0.43529001  0.59139075  0.09098749    -0.77550
O36         O  0.37932036  0.52877692  0.13052824    -1.13680
O37         O  0.41046339  0.52032164  0.07366450    -0.72880
C38         C  0.37873408  0.48635735  0.06607613     0.97840
C39         C  0.29840005  0.50021891  0.17949466     0.94240
Al40       Al  0.36917912  0.56740378  0.14510706     1.55560
O41         O  0.37797456  0.45911842  0.15807872    -0.77500
C42         C  0.44009414  0.62238468  0.10573559     0.98400
C43         C  0.30921810  0.52797127  0.09448769     0.93280
O44         O  0.30355536  0.49210459  0.10534933    -0.82820
O45         O  0.13849090  0.65851573  0.08989995    -0.82280
C46         C  0.16421125  0.56921813  0.18660191     0.97070
O47         O  0.14978642  0.55064373  0.15892096    -0.71400
O48         O  0.09327891  0.56949374  0.15902240    -0.74990
Al49       Al  0.12962234  0.57482594  0.12556573     1.48980
C50         C  0.07148536  0.58632821  0.15722107     0.92330
O51         O  0.16395230  0.68101476  0.18482490    -0.81210
O52         O  0.23848072  0.67829711  0.11385519    -0.74770
Al53       Al  0.14951397  0.66597358  0.13688227     1.90120
O54         O  0.22479246  0.68332696  0.18147703    -0.73840
O55         O  0.22097102  0.60166275  0.12185106    -0.73690
O56         O  0.19733007  0.60401637  0.18680901    -0.79350
O57         O  0.16349396  0.57305315  0.09112101    -0.77550
O58         O  0.16534393  0.62734400  0.13748632    -1.13680
O59         O  0.10274209  0.59003855  0.08964224    -0.72880
C60         C  0.11820556  0.62481321  0.07412689     0.97840
C61         C  0.20072096  0.69255457  0.19693492     0.94240
Al62       Al  0.21677618  0.64072772  0.14984599     1.55560
O63         O  0.08835354  0.62464713  0.14746116    -0.77500
C64         C  0.19988089  0.57963002  0.09712962     0.98400
C65         C  0.23658469  0.71135972  0.11265624     0.93280
O66         O  0.20519996  0.71245291  0.12451602    -0.82820
O67         O  0.36790774  0.88757694  0.40156244    -0.82280
C68         C  0.43799114  0.86125077  0.30385755     0.97070
O69         O  0.46024768  0.87637843  0.33118042    -0.71400
O70         O  0.44412242  0.92678765  0.36556233    -0.74990
Al71       Al  0.43934293  0.87596293  0.37652016     1.48980
C72         C  0.42900841  0.93731337  0.34135777     0.92330
O73         O  0.32267123  0.83494448  0.31432977    -0.81210
O74         O  0.35018001  0.77267641  0.38299972    -0.74770
Al75       Al  0.35158994  0.86060767  0.35828935     1.90120
O76         O  0.32391526  0.77845636  0.32351085    -0.73840
O77         O  0.42594982  0.79312541  0.35331307    -0.73690
O78         O  0.40323973  0.82691114  0.30346244    -0.79350
O79         O  0.44773646  0.83316697  0.39602748    -0.77550
O80         O  0.38900043  0.84481003  0.35976712    -1.13680
O81         O  0.41987915  0.87790204  0.41927294    -0.72880
C82         C  0.39182618  0.88707446  0.42495870     0.97840
C83         C  0.30787203  0.79664966  0.30786641     0.94240
Al84       Al  0.37717217  0.79731507  0.34256938     1.55560
O85         O  0.39033623  0.91369582  0.33278004    -0.77500
C86         C  0.44921326  0.80634771  0.37881662     0.98400
C87         C  0.31997177  0.77761474  0.39332095     0.93280
O88         O  0.31486613  0.80873572  0.38373037    -0.82820
O89         O  0.57828312  0.66152743  0.40265569    -0.82280
C90         C  0.47450339  0.57869010  0.31289755     0.97070
O91         O  0.47032055  0.56316257  0.34329804    -0.71400
O92         O  0.53784139  0.58623432  0.38621736    -0.74990
Al93       Al  0.49153147  0.59403186  0.38594885     1.48980
C94         C  0.54939041  0.58053773  0.35890924     0.92330
O95         O  0.56913508  0.68521178  0.30602118    -0.81210
O96         O  0.49084020  0.68993452  0.37112763    -0.74770
Al97       Al  0.56657076  0.66773300  0.35522634     1.90120
O98         O  0.52034548  0.70017496  0.31077559    -0.73840
O99         O  0.42896249  0.61251678  0.35082897    -0.73690
O100        O  0.47853090  0.61464964  0.30576534    -0.79350
O101        O  0.43933203  0.58845747  0.39731193    -0.77550
O102        O  0.51320306  0.63904145  0.36042108    -1.13680
O103        O  0.51477148  0.62599189  0.42515772    -0.72880
C104        C  0.55424372  0.64967135  0.42811664     0.97840
C105        C  0.55226749  0.70637975  0.29568853     0.94240
Al106      Al  0.48202367  0.65285051  0.33704600     1.55560
O107        O  0.56672777  0.61353959  0.33973274    -0.77500
C108        C  0.41465488  0.58767694  0.37508764     0.98400
C109        C  0.52820840  0.71806244  0.37965466     0.93280
O110        O  0.56189298  0.71689705  0.37125891    -0.82820
O111        O  0.14063865  0.46040563  0.40101000    -0.82280
C112        C  0.13907163  0.56932655  0.31751328     0.97070
O113        O  0.11684394  0.55101837  0.34295027    -0.71400
O114        O  0.08990255  0.48416987  0.38519518    -0.74990
Al115      Al  0.13790233  0.53778194  0.38265652     1.48980
C116        C  0.07263010  0.47051002  0.35739729     0.92330
O117        O  0.16459375  0.47062874  0.30507098    -0.81210
O118        O  0.24673235  0.54470888  0.34928751    -0.74770
Al119      Al  0.15170422  0.47059470  0.35235308     1.90120
O120        O  0.20248017  0.53694510  0.29294677    -0.73840
O121        O  0.23288187  0.59965350  0.37440474    -0.73690
O122        O  0.17890435  0.58839708  0.31910284    -0.79350
O123        O  0.17447784  0.59448306  0.38911979    -0.77550
O124        O  0.16843138  0.52434314  0.35655417    -1.13680
O125        O  0.15952238  0.52371919  0.42081550    -0.72880
C126        C  0.15335561  0.48680235  0.42511693     0.97840
C127        C  0.18876112  0.49931149  0.28509581     0.94240
Al128      Al  0.21165302  0.56436386  0.33561127     1.55560
O129        O  0.09284572  0.45951013  0.33807598    -0.77500
C130        C  0.21332100  0.61400121  0.38951665     0.98400
C131        C  0.24278105  0.51055432  0.35961951     0.93280
O132        O  0.20703601  0.47824418  0.36398503    -0.82820
O133        O  0.49617844  0.34882813  0.41318849    -0.82280
C134        C  0.58731207  0.40258053  0.30334578     0.97070
O135        O  0.60357563  0.42667497  0.32880739    -0.71400
O136        O  0.54274589  0.42876904  0.35141138    -0.74990
Al137      Al  0.57746259  0.41433145  0.37266696     1.48980
C138        C  0.50494570  0.41179569  0.34405693     0.92330
O139        O  0.48621515  0.30300165  0.32117895    -0.81210
O140        O  0.57658468  0.31507944  0.38612267    -0.74770
Al141      Al  0.49612781  0.32977445  0.36756535     1.90120
O142        O  0.53549277  0.28784218  0.32815759    -0.73840
O143        O  0.63644743  0.38534248  0.35634522    -0.73690
O144        O  0.58071635  0.36547677  0.30432304    -0.79350
O145        O  0.61738109  0.40761991  0.39817740    -0.77550
O146        O  0.54997467  0.36141696  0.36212415    -1.13680
O147        O  0.55322500  0.40932078  0.41559176    -0.72880
C148        C  0.52104958  0.38107328  0.42977495     0.97840
C149        C  0.50321857  0.28188052  0.31201354     0.94240
Al150      Al  0.57993787  0.33993989  0.34520981     1.55560
O151        O  0.48126291  0.37206275  0.34767364    -0.77500
C152        C  0.64603345  0.40831586  0.38191051     0.98400
C153        C  0.54281641  0.29221261  0.40187667     0.93280
O154        O  0.50708156  0.28769310  0.39158777    -0.82820
O155        O  0.89736579  0.53117702  0.39937618    -0.82280
C156        C  0.83029718  0.42325096  0.29240627     0.97070
O157        O  0.85826982  0.42206228  0.31089227    -0.71400
O158        O  0.91750147  0.49069221  0.31542653    -0.74990
Al159      Al  0.88608823  0.45463214  0.34962801     1.48980
C160        C  0.94823150  0.52216432  0.32575276     0.92330
O161        O  0.86173318  0.54114139  0.30821085    -0.81210
O162        O  0.79664596  0.46726158  0.38822670    -0.74770
Al163      Al  0.88158914  0.53494805  0.35459906     1.90120
O164        O  0.79635669  0.49522369  0.32122870    -0.73840
O165        O  0.79370051  0.39671519  0.36325491    -0.73690
O166        O  0.80593635  0.43486546  0.30288289    -0.79350
O167        O  0.85625396  0.41233719  0.38068778    -0.77550
O168        O  0.85615634  0.47929697  0.35025626    -1.13680
O169        O  0.91774423  0.48491912  0.39106545    -0.72880
C170        C  0.91147518  0.50843467  0.41081465     0.97840
C171        C  0.82193029  0.52517039  0.30230413     0.94240
Al172      Al  0.80185643  0.45042573  0.34499354     1.55560
O173        O  0.94023555  0.54776341  0.34041618    -0.77500
C174        C  0.81870936  0.38587242  0.37644083     0.98400
C175        C  0.80339920  0.50421160  0.39070059     0.93280
O176        O  0.83314975  0.53411194  0.37451329    -0.82820
O177        O  0.66291313  0.12584274  0.40358267    -0.82280
C178        C  0.60342938  0.21830030  0.33683754     0.97070
O179        O  0.58248161  0.19347585  0.36069366    -0.71400
O180        O  0.57588047  0.12452975  0.34198685    -0.74990
Al181      Al  0.59402549  0.15259199  0.38241944     1.48980
C182        C  0.58051313  0.09425771  0.33566311     0.92330
O183        O  0.68407935  0.17318437  0.31249401    -0.81210
O184        O  0.70869465  0.22752016  0.40452323    -0.74770
Al185      Al  0.67087444  0.14850648  0.35851158     1.90120
O186        O  0.71250293  0.23734957  0.33188943    -0.73840
O187        O  0.64534665  0.24097692  0.40520991    -0.73690
O188        O  0.64281219  0.23778577  0.33744266    -0.79350
O189        O  0.60643695  0.17825365  0.42494863    -0.77550
O190        O  0.64641467  0.17775659  0.36943764    -1.13680
O191        O  0.59667180  0.10769897  0.40630185    -0.72880
C192        C  0.62932022  0.11011332  0.42011857     0.97840
C193        C  0.70814763  0.21256981  0.30799841     0.94240
Al194      Al  0.67585195  0.23239578  0.37020074     1.55560
O195        O  0.61676548  0.09796162  0.34155362    -0.77500
C196        C  0.61880848  0.21635579  0.42628511     0.98400
C197        C  0.73711911  0.22120538  0.39485591     0.93280
O198        O  0.72799957  0.19155732  0.37421251    -0.82820
O199        O  0.65748173  0.54008825  0.08652842    -0.82280
C200        C  0.57825316  0.43335439  0.17957119     0.97070
O201        O  0.56241829  0.42760030  0.14921829    -0.71400
O202        O  0.58008948  0.49551461  0.11004580    -0.74990
Al203      Al  0.59235963  0.45242760  0.10655226     1.48980
C204        C  0.57987445  0.50932776  0.13832351     0.92330
O205        O  0.69020778  0.53669214  0.18184646    -0.81210
O206        O  0.68755852  0.45406734  0.11908121    -0.74770
Al207      Al  0.66824232  0.53016835  0.13403987     1.90120
O208        O  0.70059387  0.48498639  0.18000914    -0.73840
O209        O  0.61290713  0.39120207  0.14038736    -0.73690
O210        O  0.61562463  0.44095443  0.18645011    -0.79350
O211        O  0.59496354  0.40540542  0.09248277    -0.77550
O212        O  0.63840166  0.47638461  0.13107516    -1.13680
O213        O  0.62012724  0.47645138  0.06648099    -0.72880
C214        C  0.64186922  0.51523509  0.06168454     0.97840
C215        C  0.71086003  0.51949823  0.19235368     0.94240
Al216      Al  0.65280715  0.44561210  0.15426219     1.55560
O217        O  0.61613543  0.53047810  0.15301531    -0.77500
C218        C  0.59374907  0.37906090  0.11291871     0.98400
C219        C  0.71801678  0.49022320  0.11148781     0.93280
O220        O  0.71733878  0.52475175  0.11695025    -0.82820
O221        O  0.49040249  0.11794097  0.09336262    -0.82280
C222        C  0.59301314  0.18249141  0.20316719     0.97070
O223        O  0.58292578  0.14589130  0.19410731    -0.71400
O224        O  0.51785321  0.08529848  0.17855150    -0.74990
Al225      Al  0.56076816  0.12153148  0.15101518     1.48980
C226        C  0.48890229  0.05710268  0.16311979     0.92330
O227        O  0.47793691  0.14693323  0.18370061    -0.81210
O228        O  0.54569482  0.20899810  0.10048096    -0.74770
Al229      Al  0.48340441  0.12993897  0.13722838     1.90120
O230        O  0.52964867  0.21227389  0.17372060    -0.73840
O231        O  0.61586088  0.21077716  0.11519175    -0.73690
O232        O  0.59974899  0.21080931  0.18193509    -0.79350
O233        O  0.61078339  0.15155919  0.12990854    -0.77550
O234        O  0.53924339  0.15330746  0.14383664    -1.13680
O235        O  0.53748580  0.09723180  0.10449277    -0.72880
C236        C  0.51333006  0.10360867  0.08335332     0.97840
C237        C  0.49771536  0.18626251  0.19159159     0.94240
Al238      Al  0.57043449  0.20727658  0.14250360     1.55560
O239        O  0.46648201  0.06875745  0.14672662    -0.77500
C240        C  0.63057643  0.18624479  0.11613253     0.98400
C241        C  0.51182781  0.20863318  0.10233221     0.93280
O242        O  0.48323131  0.18012621  0.12002407    -0.82820
O243        O  0.88899915  0.34692771  0.08743734    -0.82280
C244        C  0.80349665  0.40103727  0.15393795     0.97070
O245        O  0.82681629  0.42404405  0.12973237    -0.71400
O246        O  0.89765776  0.43374119  0.11715684    -0.74990
Al247      Al  0.85030869  0.40754797  0.09372704     1.48980
C248        C  0.92080451  0.42918667  0.13753062     0.92330
O249        O  0.83459875  0.32346477  0.17594488    -0.81210
O250        O  0.77548602  0.29481805  0.08384411    -0.74770
Al251      Al  0.86135250  0.33773561  0.12996379     1.90120
O252        O  0.77213557  0.28985482  0.15371458    -0.73840
O253        O  0.75313181  0.35387476  0.08753383    -0.73690
O254        O  0.77793698  0.36241740  0.15076467    -0.79350
O255        O  0.80769121  0.39482887  0.06134380    -0.77550
O256        O  0.82991648  0.35852762  0.11384278    -1.13680
O257        O  0.87630128  0.39298910  0.06008649    -0.72880
C258        C  0.89050432  0.36788668  0.06104534     0.97840
C259        C  0.79543933  0.29773666  0.17965912     0.94240
Al260      Al  0.77508172  0.32801405  0.11781059     1.55560
O261        O  0.90934058  0.39231726  0.14874196    -0.77500
C262        C  0.77286791  0.38699025  0.07112052     0.98400
C263        C  0.78817096  0.26970165  0.09225759     0.93280
O264        O  0.82020775  0.28101874  0.11232370    -0.82820
O265        O  0.30991188  0.81099884  0.61410115    -0.82280
C266        C  0.44497825  0.86720375  0.68506308     0.97070
O267        O  0.41611056  0.82904809  0.68653293    -0.71400
O268        O  0.33356348  0.78545550  0.68075168    -0.74990
Al269      Al  0.37853974  0.79816148  0.65199897     1.48980
C270        C  0.31939021  0.80598964  0.69406225     0.92330
O271        O  0.39836102  0.91728282  0.65955569    -0.81210
O272        O  0.40969696  0.86930121  0.57134337    -0.74770
Al273      Al  0.35245419  0.86313283  0.63596122     1.90120
O274        O  0.43537125  0.92783787  0.61619933    -0.73840
O275        O  0.45393542  0.84180062  0.60023266    -0.73690
O276        O  0.46271492  0.88562311  0.65749626    -0.79350
O277        O  0.41785919  0.78760241  0.63100935    -0.77550
O278        O  0.38818896  0.84500712  0.63307665    -1.13680
O279        O  0.34104381  0.77134522  0.61774486    -0.72880
C280        C  0.31295105  0.77890700  0.60573846     0.97840
C281        C  0.43388326  0.93926557  0.64501673     0.94240
Al282      Al  0.43616323  0.87749301  0.61326044     1.55560
O283        O  0.32948370  0.84150230  0.68151981    -0.77500
C284        C  0.44598812  0.80696583  0.61010101     0.98400
C285        C  0.38333625  0.88126062  0.56543919     0.93280
O286        O  0.36355047  0.88642931  0.58935939    -0.82820
O287        O  0.55199891  0.71517931  0.61904788    -0.82280
C288        C  0.47979956  0.57302184  0.67977309     0.97070
O289        O  0.47988196  0.60656608  0.68762131    -0.71400
O290        O  0.50920499  0.69003645  0.68197338    -0.74990
Al291      Al  0.47705011  0.64290424  0.65568308     1.48980
C292        C  0.54517767  0.70720430  0.69423255     0.92330
O293        O  0.57643854  0.62666473  0.65675508    -0.81210
O294        O  0.51849129  0.62718283  0.56831145    -0.74770
Al295      Al  0.56645353  0.67356710  0.63786457     1.90120
O296        O  0.54650495  0.59155504  0.61191321    -0.73840
O297        O  0.44414541  0.58603422  0.59203165    -0.73690
O298        O  0.47566565  0.55995083  0.64901166    -0.79350
O299        O  0.42665418  0.59780692  0.63981442    -0.77550
O300        O  0.51352676  0.63761656  0.63303854    -1.13680
O301        O  0.48033891  0.67971313  0.62174315    -0.72880
C302        C  0.51523617  0.71058034  0.61142034     0.97840
C303        C  0.56138468  0.59200313  0.64058181     0.94240
Al304      Al  0.49692025  0.59407040  0.60728861     1.55560
O305        O  0.56909739  0.69400305  0.68483476    -0.77500
C306        C  0.41652371  0.57813285  0.61282575     0.98400
C307        C  0.55697034  0.65371848  0.56592484     0.93280
O308        O  0.58045626  0.66810262  0.59194360    -0.82820
O309        O  0.21259871  0.47096378  0.62670095    -0.82280
C310        C  0.16016877  0.56891901  0.67542952     0.97070
O311        O  0.19480792  0.56987417  0.68182353    -0.71400
O312        O  0.22678247  0.51788471  0.69004480    -0.74990
Al313      Al  0.22666161  0.55556101  0.65517576     1.48980
C314        C  0.20223746  0.48120994  0.69986012     0.92330
O315        O  0.10227461  0.46144006  0.65172102    -0.81210
O316        O  0.16758777  0.52200152  0.56887220    -0.74770
Al317      Al  0.15798540  0.46647721  0.63729778     1.90120
O318        O  0.10097116  0.49190373  0.60610568    -0.73840
O319        O  0.19334158  0.59198298  0.59540212    -0.73690
O320        O  0.14141604  0.56014825  0.64668716    -0.79350
O321        O  0.24552588  0.60610130  0.62868964    -0.77550
O322        O  0.18074439  0.52119237  0.63299818    -1.13680
O323        O  0.25721841  0.54027743  0.62846261    -0.72880
C324        C  0.24933745  0.50325713  0.62324159     0.97840
C325        C  0.08489919  0.47816178  0.63397401     0.94240
Al326      Al  0.15379365  0.54009339  0.60686639     1.55560
O327        O  0.16744295  0.46129198  0.68494007    -0.77500
C328        C  0.22812464  0.61704800  0.60631908     0.98400
C329        C  0.15897764  0.48486615  0.56445618     0.93280
O330        O  0.14528823  0.45788955  0.58848592    -0.82820
O331        O  0.54731669  0.81301757  0.85743189    -0.82280
C332        C  0.45000062  0.86697693  0.81124254     0.97070
O333        O  0.45451903  0.83706479  0.80044007    -0.71400
O334        O  0.49928438  0.79718767  0.79602443    -0.74990
Al335      Al  0.46284589  0.80043744  0.82770581     1.48980
C336        C  0.53480271  0.82184775  0.78504457     0.92330
O337        O  0.55240478  0.92187509  0.83332009    -0.81210
O338        O  0.50332759  0.85331385  0.91751288    -0.74770
Al339      Al  0.55136676  0.86752104  0.84643187     1.90120
O340        O  0.52007259  0.91804500  0.87891043    -0.73840
O341        O  0.43073892  0.81260065  0.89556404    -0.73690
O342        O  0.44781917  0.87343957  0.84286743    -0.79350
O343        O  0.40932672  0.78471600  0.84733365    -0.77550
O344        O  0.49717774  0.84301486  0.85208156    -1.13680
O345        O  0.47656772  0.76810712  0.85718720    -0.72880
C346        C  0.51483416  0.77606700  0.86087981     0.97840
C347        C  0.53309805  0.93560875  0.85110188     0.94240
Al348      Al  0.47642982  0.86267039  0.88128850     1.55560
O349        O  0.55416771  0.85771227  0.79793657    -0.77500
C350        C  0.40126445  0.79090800  0.87639235     0.98400
C351        C  0.54228886  0.86834918  0.91998200     0.93280
O352        O  0.56542865  0.88220472  0.89417140    -0.82820
O353        O  0.31129655  0.47404448  0.86417089    -0.82280
C354        C  0.44875275  0.53117196  0.79977645     0.97070
O355        O  0.41416090  0.52890510  0.79037835    -0.71400
O356        O  0.33194014  0.50164853  0.79663270    -0.74990
Al357      Al  0.38145728  0.53884674  0.81888639     1.48980
C358        C  0.31349210  0.46378789  0.79098790     0.92330
O359        O  0.39879375  0.44253483  0.83824756    -0.81210
O360        O  0.40507951  0.51956176  0.91310935    -0.74770
Al361      Al  0.35224928  0.45581059  0.85238422     1.90120
O362        O  0.43512083  0.47989171  0.87978160    -0.73840
O363        O  0.44402472  0.58472293  0.87737735    -0.73690
O364        O  0.46442308  0.54127267  0.83007161    -0.79350
O365        O  0.42781030  0.59187974  0.82661747    -0.77550
O366        O  0.38854289  0.50842108  0.84865720    -1.13680
O367        O  0.34845272  0.54369263  0.85085391    -0.72880
C368        C  0.31609576  0.51153886  0.86298341     0.97840
C369        C  0.43464390  0.46119246  0.85394226     0.94240
Al370      Al  0.43429196  0.53026115  0.87317904     1.55560
O371        O  0.32792745  0.44249551  0.80543340    -0.77500
C372        C  0.44891178  0.60769800  0.85266154     0.98400
C373        C  0.37741997  0.48364459  0.92251552     0.93280
O374        O  0.36139707  0.45351172  0.90168831    -0.82820
O375        O  0.20270366  0.71048665  0.88461230    -0.82280
C376        C  0.15662265  0.57598122  0.81032754     0.97070
O377        O  0.19495590  0.59854043  0.81985134    -0.71400
O378        O  0.22946328  0.68032776  0.81864658    -0.74990
Al379      Al  0.21921363  0.64136935  0.85377624     1.48980
C380        C  0.21384698  0.70116736  0.80607395     0.92330
O381        O  0.10139988  0.62918516  0.83394749    -0.81210
O382        O  0.13896781  0.59525487  0.92060526    -0.74770
Al383      Al  0.15310547  0.66787029  0.86113459     1.90120
O384        O  0.08453419  0.58247042  0.87277055    -0.73840
O385        O  0.16645534  0.55283073  0.88226880    -0.73690
O386        O  0.12616567  0.56187538  0.83053678    -0.79350
O387        O  0.22386346  0.60919456  0.88978580    -0.77550
O388        O  0.16915674  0.63012503  0.86342519    -1.13680
O389        O  0.24451895  0.68346788  0.88442778    -0.72880
C390        C  0.23736897  0.71213212  0.89198942     0.97840
C391        C  0.07555584  0.59315533  0.84518320     0.94240
Al392      Al  0.13206470  0.57742229  0.87592125     1.55560
O393        O  0.17904809  0.69491554  0.81734903    -0.77500
C394        C  0.20434043  0.57058243  0.88949202     0.98400
C395        C  0.13235600  0.62457954  0.92926113     0.93280
O396        O  0.12833525  0.64895941  0.90725029    -0.82820
O397        O  0.49219849  0.28839367  0.61341676    -0.82280
C398        C  0.63058471  0.39867017  0.67488902     0.97070
O399        O  0.61395511  0.36082446  0.66750380    -0.71400
O400        O  0.54520118  0.29175262  0.65910989    -0.74990
Al401      Al  0.58398699  0.33656706  0.62894376     1.48980
C402        C  0.52406935  0.29281453  0.68388741     0.92330
O403        O  0.50107636  0.38852112  0.65588764    -0.81210
O404        O  0.54424101  0.42159433  0.59467486    -0.74770
Al405      Al  0.50269802  0.33940824  0.63591294     1.90120
O406        O  0.56697721  0.42744405  0.66562601    -0.73840
O407        O  0.61006750  0.41877909  0.58431457    -0.73690
O408        O  0.63272122  0.42552360  0.65310088    -0.79350
O409        O  0.63073413  0.37560908  0.60111349    -0.77550
O410        O  0.55780370  0.36540227  0.63015597    -1.13680
O411        O  0.55383149  0.31109105  0.59013455    -0.72880
C412        C  0.51491598  0.28575032  0.59076979     0.97840
C413        C  0.53156256  0.42342142  0.66567895     0.94240
Al414      Al  0.58624232  0.41965575  0.62500330     1.55560
O415        O  0.50801151  0.31687218  0.68125572    -0.77500
C416        C  0.63683918  0.40766311  0.58428232     0.98400
C417        C  0.51675035  0.39119136  0.57727076     0.93280
O418        O  0.49507340  0.35616970  0.59165766    -0.82820
O419        O  0.83475783  0.51068221  0.59734631    -0.82280
C420        C  0.87527628  0.41771002  0.67743350     0.97070
O421        O  0.83726673  0.39889977  0.66717051    -0.71400
O422        O  0.81244712  0.45245905  0.67830028    -0.74990
Al423      Al  0.81389033  0.42543075  0.63906093     1.48980
C424        C  0.82400253  0.48940082  0.68615431     0.92330
O425        O  0.93222264  0.52782979  0.65329135    -0.81210
O426        O  0.89363335  0.45907929  0.56792880    -0.74770
Al427      Al  0.88140757  0.51697780  0.62486282     1.90120
O428        O  0.94803820  0.49602734  0.61624597    -0.73840
O429        O  0.86051682  0.38857686  0.60379712    -0.73690
O430        O  0.90529940  0.43306421  0.65715943    -0.79350
O431        O  0.80362528  0.39167116  0.60100916    -0.77550
O432        O  0.86385075  0.46289065  0.62543206    -1.13680
O433        O  0.78657023  0.44750627  0.61355424    -0.72880
C434        C  0.79802005  0.47973555  0.59551557     0.97840
C435        C  0.95716669  0.51580875  0.64307262     0.94240
Al436      Al  0.89898539  0.44533166  0.61230947     1.55560
O437        O  0.85202317  0.51865813  0.66778965    -0.77500
C438        C  0.82345888  0.37362597  0.59384111     0.98400
C439        C  0.90443879  0.49598512  0.55812711     0.93280
O440        O  0.90938506  0.52415976  0.57956399    -0.82820
O441        O  0.70054544  0.18656236  0.60057779    -0.82280
C442        C  0.56710060  0.14922736  0.67602516     0.97070
O443        O  0.58733352  0.18652602  0.66442095    -0.71400
O444        O  0.67041720  0.22125364  0.67133609    -0.74990
Al445      Al  0.63297629  0.20817516  0.63301919     1.48980
C446        C  0.69679614  0.21132345  0.68233504     0.92330
O447        O  0.62882013  0.09779208  0.66261313    -0.81210
O448        O  0.59001858  0.11712871  0.57014855    -0.74770
Al449      Al  0.66378146  0.14375658  0.63018238     1.90120
O450        O  0.57864773  0.07255423  0.62550750    -0.73840
O451        O  0.54762060  0.14831007  0.59891998    -0.73690
O452        O  0.55400009  0.11750757  0.65756325    -0.79350
O453        O  0.60015876  0.21033787  0.59507768    -0.77550
O454        O  0.62388795  0.15764380  0.62567458    -1.13680
O455        O  0.67812636  0.23203457  0.60375138    -0.72880
C456        C  0.70274642  0.22078336  0.59225247     0.97840
C457        C  0.59211079  0.06979520  0.65410013     0.94240
Al458      Al  0.57199190  0.11754812  0.61389777     1.55560
O459        O  0.69544073  0.17914624  0.66986453    -0.77500
C460        C  0.56243337  0.18477809  0.58890495     0.98400
C461        C  0.61859214  0.10843457  0.56428698     0.93280
O462        O  0.64373076  0.10950094  0.58810686    -0.82820
O463        O  0.73236630  0.52915204  0.87976565    -0.82280
C464        C  0.60484006  0.41338035  0.81237258     0.97070
O465        O  0.62582319  0.40051423  0.83008037    -0.71400
O466        O  0.70531476  0.45770021  0.82102382    -0.74990
Al467      Al  0.67109896  0.43379016  0.85992049     1.48980
C468        C  0.71984550  0.48988864  0.80237527     0.92330
O469        O  0.64013071  0.52552757  0.82377622    -0.81210
O470        O  0.61875289  0.47199905  0.91600452    -0.74770
Al471      Al  0.68557876  0.52376798  0.85291409     1.90120
O472        O  0.59767930  0.49760023  0.86428167    -0.73840
O473        O  0.58354610  0.39642721  0.88555319    -0.73690
O474        O  0.58811947  0.43280014  0.82570006    -0.79350
O475        O  0.64268664  0.40233499  0.89988734    -0.77550
O476        O  0.65399822  0.46995745  0.86178746    -1.13680
O477        O  0.71485836  0.46335928  0.88857130    -0.72880
C478        C  0.73756628  0.50141313  0.89486612     0.97840
C479        C  0.60373719  0.51256759  0.83566587     0.94240
Al480      Al  0.60109646  0.45093312  0.87200879     1.55560
O481        O  0.71133641  0.51835111  0.81005861    -0.77500
C482        C  0.60351751  0.38244262  0.90135280     0.98400
C483        C  0.64515683  0.51078646  0.92084530     0.93280
O484        O  0.66736061  0.53549610  0.89657767    -0.82820
O485        O  0.50966640  0.18496176  0.89390861    -0.82280
C486        C  0.59559671  0.13847422  0.81554242     0.97070
O487        O  0.61665018  0.17540878  0.82691269    -0.71400
O488        O  0.56711565  0.20708546  0.81588729    -0.74990
Al489      Al  0.59355978  0.20026849  0.85551816     1.48980
C490        C  0.53012866  0.19585796  0.80640065     0.92330
O491        O  0.48398379  0.08765941  0.83947786    -0.81210
O492        O  0.55600317  0.11671376  0.92500925    -0.74770
Al493      Al  0.49988742  0.13796163  0.86779450     1.90120
O494        O  0.51254551  0.06588959  0.87654022    -0.73840
O495        O  0.62359774  0.14474585  0.88805237    -0.73690
O496        O  0.57581627  0.10719058  0.83477093    -0.79350
O497        O  0.62671796  0.20406290  0.89424620    -0.77550
O498        O  0.55301124  0.15110692  0.86775576    -1.13680
O499        O  0.57537212  0.22916526  0.88132865    -0.72880
C500        C  0.54233142  0.22015563  0.89665488     0.97840
C501        C  0.49273441  0.05991171  0.84940634     0.94240
Al502      Al  0.56615305  0.11176631  0.88007093     1.55560
O503        O  0.50011661  0.16829224  0.82428759    -0.77500
C504        C  0.64161192  0.18049482  0.89988562     0.98400
C505        C  0.52073779  0.10989319  0.93525857     0.93280
O506        O  0.49302754  0.10953682  0.91392955    -0.82820
O507        O  0.82672808  0.29732003  0.87218931    -0.82280
C508        C  0.86702012  0.44166905  0.81532511     0.97070
O509        O  0.82797419  0.41676942  0.82014553    -0.71400
O510        O  0.79519620  0.33470879  0.80961721    -0.74990
Al511      Al  0.80381457  0.36771742  0.84869010     1.48980
C512        C  0.81162619  0.31694614  0.79454910     0.92330
O513        O  0.92753333  0.39336692  0.82903706    -0.81210
O514        O  0.88159254  0.39362433  0.92206406    -0.74770
Al515      Al  0.87397790  0.34322847  0.85163900     1.90120
O516        O  0.93871716  0.42199217  0.87648394    -0.73840
O517        O  0.85645361  0.44389204  0.89521993    -0.73690
O518        O  0.89461511  0.45196464  0.83891176    -0.79350
O519        O  0.79351485  0.39617946  0.88466567    -0.77550
O520        O  0.85403010  0.37701027  0.86049987    -1.13680
O521        O  0.78074274  0.32015368  0.87596434    -0.72880
C522        C  0.79276067  0.29391803  0.88288957     0.97840
C523        C  0.94987317  0.42617870  0.84692836     0.94240
Al524      Al  0.88868678  0.42337701  0.88144578     1.55560
O525        O  0.84634269  0.32161374  0.80632376    -0.77500
C526        C  0.81882084  0.43115447  0.89654345     0.98400
C527        C  0.89366701  0.36671111  0.92436617     0.93280
O528        O  0.89919742  0.35036323  0.89793895    -0.82820
C529        C  0.68335786  0.19717425  0.91472590    -0.00640
C530        C  0.71015904  0.18640734  0.89860077    -0.12510
C531        C  0.75104229  0.21726755  0.89197549     0.01600
C532        C  0.76438238  0.25793046  0.90300686    -0.00720
C533        C  0.74128173  0.26463037  0.92730816    -0.12450
C534        C  0.70038840  0.23391245  0.93352653     0.01480
H535        H  0.69748566  0.15680277  0.88578340     0.14460
H536        H  0.75300919  0.29544624  0.93776937     0.14460
C537        C  0.67507835  0.24261376  0.95563872     0.36120
C538        C  0.77564882  0.20800400  0.86959224     0.36020
N539        N  0.65517467  0.24950545  0.97384591    -0.44230
N540        N  0.79528887  0.20021008  0.85185056    -0.44220
C541        C  0.77260791  0.51134248  0.91822366    -0.00640
C542        C  0.81013113  0.52818997  0.90099409    -0.12510
C543        C  0.82644282  0.50218076  0.89429407     0.01600
C544        C  0.80682009  0.46102638  0.90823450    -0.00720
C545        C  0.77761783  0.45061812  0.93390660    -0.12450
C546        C  0.76418294  0.47890776  0.94176042     0.01480
H547        H  0.82042076  0.55659154  0.88615513     0.14460
H548        H  0.76513829  0.42089113  0.94710441     0.14460
C549        C  0.73186093  0.46744839  0.96641933     0.36120
C550        C  0.86026055  0.51715682  0.87051972     0.36020
N551        N  0.70599405  0.45857874  0.98619382    -0.44230
N552        N  0.88762261  0.52976035  0.85172102    -0.44220
C553        C  0.54344464  0.25376447  0.91618901    -0.00640
C554        C  0.58047445  0.27784171  0.93495227    -0.12510
C555        C  0.59960780  0.32124419  0.93443772     0.01600
C556        C  0.57993733  0.34019408  0.91636024    -0.00720
C557        C  0.53788524  0.31519153  0.90553510    -0.12450
C558        C  0.51974630  0.27193070  0.90468761     0.01480
H559        H  0.59785504  0.26331131  0.94494010     0.14460
H560        H  0.52120617  0.32926255  0.89316288     0.14460
C561        C  0.48083913  0.24817731  0.88609139     0.36120
C562        C  0.64089814  0.34508051  0.94937861     0.36020
N563        N  0.44985804  0.22924679  0.87095046    -0.44230
N564        N  0.67401568  0.36382695  0.96141714    -0.44220
C565        C  0.57075113  0.14227471  0.71180910    -0.00640
C566        C  0.60813223  0.14376196  0.72237189    -0.12510
C567        C  0.61652979  0.14016119  0.75625071     0.01600
C568        C  0.58607290  0.13313128  0.77968521    -0.00720
C569        C  0.54644316  0.12635992  0.76878938    -0.12450
C570        C  0.53849802  0.13093244  0.73473653     0.01480
H571        H  0.63097815  0.14817411  0.70411153     0.14460
H572        H  0.52256846  0.11984146  0.78703527     0.14460
C573        C  0.49827893  0.12545912  0.72418646     0.36120
C574        C  0.65639772  0.14445462  0.76651923     0.36020
N575        N  0.46597987  0.12104348  0.71580409    -0.44230
N576        N  0.68819087  0.14767012  0.77499091    -0.44220
C577        C  0.78792759  0.29118023  0.76307916    -0.00640
C578        C  0.76358395  0.30394213  0.74349926    -0.12510
C579        C  0.73624961  0.27966846  0.71691642     0.01600
C580        C  0.72914155  0.23891646  0.70979070    -0.00720
C581        C  0.75508859  0.22680110  0.72819989    -0.12450
C582        C  0.78443986  0.25253520  0.75386024     0.01480
H583        H  0.76646087  0.33398453  0.74862596     0.14460
H584        H  0.75259159  0.19708097  0.72258463     0.14460
C585        C  0.81084170  0.23860583  0.77013175     0.36120
C586        C  0.71858067  0.29942138  0.69556072     0.36020
N587        N  0.83264902  0.22773388  0.78258052    -0.44230
N588        N  0.70530911  0.31549113  0.67772859    -0.44220
C589        C  0.74731326  0.49214975  0.77208503    -0.00640
C590        C  0.77473167  0.52965511  0.75435896    -0.12510
C591        C  0.80159528  0.53104445  0.72766620     0.01600
C592        C  0.80158186  0.49438645  0.71713356    -0.00720
C593        C  0.77496718  0.45769780  0.73557782    -0.12450
C594        C  0.74891749  0.45611045  0.76191315     0.01480
H595        H  0.77583540  0.55826813  0.76166027     0.14460
H596        H  0.77397857  0.42879554  0.72932076     0.14460
C597        C  0.72424383  0.41579977  0.77795303     0.36120
C598        C  0.82946959  0.57062054  0.71205033     0.36020
N599        N  0.70495949  0.38348362  0.79087447    -0.44230
N600        N  0.85226566  0.60249307  0.69979130    -0.44220
C601        C  0.88449615  0.42923448  0.71261448    -0.00640
C602        C  0.88976435  0.46793690  0.72277408    -0.12510
C603        C  0.88681425  0.47546202  0.75691405     0.01600
C604        C  0.88116391  0.44466198  0.78064214    -0.00720
C605        C  0.88330390  0.40997107  0.77015105    -0.12450
C606        C  0.88400095  0.40121801  0.73654837     0.01480
H607        H  0.89364346  0.49108600  0.70406778     0.14460
H608        H  0.88115602  0.38797204  0.78817558     0.14460
C609        C  0.88228229  0.36280021  0.72722597     0.36120
C610        C  0.88869290  0.51369023  0.76663047     0.36020
N611        N  0.88094555  0.33208394  0.71968260    -0.44230
N612        N  0.89056221  0.54467619  0.77407679    -0.44220
C613        C  0.73753978  0.25136080  0.57200857    -0.00640
C614        C  0.77766817  0.25949748  0.58210308    -0.12510
C615        C  0.81002511  0.30076190  0.58488324     0.01600
C616        C  0.80133253  0.33318611  0.57685398    -0.00720
C617        C  0.76439325  0.32376582  0.55892210    -0.12450
C618        C  0.73279432  0.28278748  0.55537460     0.01480
H619        H  0.78187815  0.23481364  0.59348988     0.14460
H620        H  0.75739996  0.34802511  0.55216484     0.14460
C621        C  0.69264360  0.27471967  0.54181758     0.36120
C622        C  0.84884270  0.30852543  0.60104213     0.36020
N623        N  0.66005431  0.26790298  0.53185389    -0.44230
N624        N  0.87993834  0.31477989  0.61403953    -0.44220
C625        C  0.52117189  0.26592612  0.71538467    -0.00640
C626        C  0.55174535  0.25367658  0.71915686    -0.12510
C627        C  0.55510470  0.23222516  0.74803098     0.01600
C628        C  0.52443291  0.21687656  0.77388043    -0.00720
C629        C  0.49212664  0.22718704  0.76961148    -0.12450
C630        C  0.49102648  0.25222780  0.74153125     0.01480
H631        H  0.57532327  0.26301256  0.69989365     0.14460
H632        H  0.46876847  0.21749762  0.78909148     0.14460
C633        C  0.45873122  0.26348763  0.74024416     0.36120
C634        C  0.59287703  0.22954512  0.75099403     0.36020
N635        N  0.43293578  0.27274323  0.73924616    -0.44230
N636        N  0.62411382  0.22919273  0.75326247    -0.44220
C637        C  0.63621311  0.40827786  0.71102467    -0.00640
C638        C  0.63303058  0.44248421  0.72106174    -0.12510
C639        C  0.61811633  0.44336946  0.75288540     0.01600
C640        C  0.60617797  0.40924215  0.77567879    -0.00720
C641        C  0.61081760  0.37563028  0.76565933    -0.12450
C642        C  0.62817322  0.37630441  0.73478087     0.01480
H643        H  0.63972613  0.46764816  0.70313797     0.14460
H644        H  0.60424395  0.35021311  0.78330092     0.14460
C645        C  0.63942704  0.34488300  0.72881818     0.36120
C646        C  0.61609757  0.48027683  0.75966416     0.36020
N647        N  0.64938389  0.32019175  0.72481890    -0.44230
N648        N  0.61551483  0.51124141  0.76052428    -0.44220
C649        C  0.49953318  0.24928701  0.56875289    -0.00640
C650        C  0.47696148  0.21115935  0.58566977    -0.12510
C651        C  0.49482544  0.18561441  0.58941064     0.01600
C652        C  0.53380709  0.19803526  0.57395667    -0.00720
C653        C  0.54761999  0.22876624  0.54838119    -0.12450
C654        C  0.52766316  0.25242811  0.54371469     0.01480
H655        H  0.45183607  0.20624398  0.60229302     0.14460
H656        H  0.57569357  0.23670112  0.53452493     0.14460
C657        C  0.54588428  0.28875865  0.52178228     0.36120
C658        C  0.47616038  0.15129929  0.61335444     0.36020
N659        N  0.56001029  0.31921971  0.50582614    -0.44230
N660        N  0.46117444  0.12379895  0.63250536    -0.44220
C661        C  0.67849651  0.43668679  0.57090373    -0.00640
C662        C  0.69962908  0.42041115  0.55368466    -0.12510
C663        C  0.74321270  0.44232133  0.55307820     0.01600
C664        C  0.76576705  0.47865621  0.57255312    -0.00720
C665        C  0.74502973  0.49903811  0.58348447    -0.12450
C666        C  0.70127798  0.47859202  0.58236185     0.01480
H667        H  0.68242652  0.38942054  0.54305509     0.14460
H668        H  0.76229167  0.52774414  0.59756496     0.14460
C669        C  0.68166894  0.49973746  0.59733936     0.36120
C670        C  0.76428577  0.42492361  0.53507791     0.36020
N671        N  0.66719105  0.51785499  0.60939725    -0.44230
N672        N  0.78037841  0.41153211  0.51879716    -0.44220
C673        C  0.97908994  0.47230996  0.83657776    -0.00640
C674        C  0.98067285  0.50267059  0.85920436    -0.12510
C675        C  0.00240017  0.54530052  0.85281789     0.01600
C676        C  0.03481478  0.56120755  0.82960783    -0.00720
C677        C  0.03340026  0.53256560  0.80521155    -0.12450
C678        C  0.00362399  0.48868433  0.80740732     0.01480
H679        H  0.96505319  0.49406779  0.88314525     0.14460
H680        H  0.05666852  0.54402647  0.78566335     0.14460
C681        C  0.99990979  0.46098463  0.78099203     0.36120
C682        C  0.99831920  0.57250656  0.87641504     0.36020
N683        N  0.99574072  0.43780725  0.76007582    -0.44230
N684        N  0.99516040  0.59418255  0.89536059    -0.44220
C685        C  0.56576421  0.51214085  0.82071862    -0.00640
C686        C  0.53355255  0.47412998  0.80634223    -0.12510
C687        C  0.49037283  0.45611721  0.81518764     0.01600
C688        C  0.47886236  0.47390420  0.84118531    -0.00720
C689        C  0.51238615  0.51076543  0.85565783    -0.12450
C690        C  0.55203962  0.53288432  0.84156285     0.01480
H691        H  0.54225249  0.45617197  0.79063778     0.14460
H692        H  0.50772369  0.52482023  0.87756704     0.14460
C693        C  0.58152385  0.57290546  0.85588535     0.36120
C694        C  0.46002408  0.41710772  0.80048471     0.36020
N695        N  0.60494646  0.60480076  0.86751534    -0.44230
N696        N  0.43593867  0.38556087  0.78871092    -0.44220
C697        C  0.22783059  0.54910628  0.88466812    -0.00640
C698        C  0.24663258  0.55696270  0.85332567    -0.12510
C699        C  0.27336689  0.54287870  0.84565652     0.01600
C700        C  0.28174931  0.51909633  0.86988321    -0.00720
C701        C  0.26140412  0.50894830  0.90122394    -0.12450
C702        C  0.23433694  0.52429679  0.90890679     0.01480
H703        H  0.24220652  0.57616565  0.83468878     0.14460
H704        H  0.26841997  0.49141615  0.92006651     0.14460
C705        C  0.21564420  0.51639833  0.94182628     0.36120
C706        C  0.29307071  0.55590938  0.81288854     0.36020
N707        N  0.20071688  0.51020387  0.96828222    -0.44230
N708        N  0.30815588  0.56717578  0.78659183    -0.44220
C709        C  0.48482507  0.02166387  0.83127231    -0.00640
C710        C  0.51741340  0.02456583  0.81082367    -0.12510
C711        C  0.53436820  0.99752978  0.81568791     0.01600
C712        C  0.51738781  0.96552797  0.84046418    -0.00720
C713        C  0.48093487  0.95991868  0.85694201    -0.12450
C714        C  0.46323547  0.98522464  0.85064930     0.01480
H715        H  0.53285269  0.05071573  0.79364901     0.14460
H716        H  0.46599656  0.93612774  0.87620818     0.14460
C717        C  0.42713544  0.97776357  0.86983853     0.36120
C718        C  0.57084009  0.00550476  0.79707368     0.36020
N719        N  0.39831151  0.97184782  0.88524788    -0.44230
N720        N  0.60006724  0.01197636  0.78199076    -0.44220
C721        C  0.27477729  0.75021218  0.90324284    -0.00640
C722        C  0.30071297  0.74307263  0.92602247    -0.12510
C723        C  0.34194468  0.75511624  0.91728267     0.01600
C724        C  0.35838396  0.77767147  0.88701563    -0.00720
C725        C  0.33528939  0.79241304  0.86849236    -0.12450
C726        C  0.29412451  0.78022702  0.87733687     0.01480
H727        H  0.28650030  0.72102961  0.94674373     0.14460
H728        H  0.34906776  0.81250708  0.84661864     0.14460
C729        C  0.27013792  0.79313732  0.85592551     0.36120
C730        C  0.36486304  0.73961624  0.93717620     0.36020
N731        N  0.25089908  0.80350894  0.83880471    -0.44230
N732        N  0.38331547  0.72679954  0.95252429    -0.44220
C733        C  0.51968215  0.73926659  0.85900448    -0.00640
C734        C  0.50834169  0.72015988  0.82734667    -0.12510
C735        C  0.48906519  0.67741575  0.82429988     0.01600
C736        C  0.47868638  0.65261353  0.85394505    -0.00720
C737        C  0.49633974  0.67175652  0.88517037    -0.12450
C738        C  0.51789655  0.71530911  0.88756832     0.01480
H739        H  0.50911432  0.73775759  0.80510320     0.14460
H740        H  0.49215985  0.65294460  0.90774948     0.14460
C741        C  0.54008738  0.73463694  0.91839256     0.36120
C742        C  0.47817885  0.66042332  0.79050960     0.36020
N743        N  0.55917986  0.74961129  0.94287683    -0.44230
N744        N  0.46970520  0.64704516  0.76342825    -0.44220
C745        C  0.05422628  0.49187907  0.64571436    -0.00640
C746        C  0.05715558  0.52838414  0.63034143    -0.12510
C747        C  0.03197844  0.54505261  0.63922580     0.01600
C748        C  0.99683897  0.52172966  0.65930331    -0.00720
C749        C  0.99521871  0.48706063  0.67722258    -0.12450
C750        C  0.02338780  0.47207958  0.67053666     0.01480
H751        H  0.07899817  0.54456729  0.61030049     0.14460
H752        H  0.96928454  0.46891102  0.69384453     0.14460
C753        C  0.01699161  0.43379171  0.68609732     0.36120
C754        C  0.03811718  0.58268857  0.62221347     0.36020
N755        N  0.01203395  0.40283627  0.69808510    -0.44230
N756        N  0.04316674  0.61290614  0.60870185    -0.44220
C757        C  0.14017662  0.57377455  0.70432711    -0.00640
C758        C  0.11597323  0.53653415  0.72261902    -0.12510
C759        C  0.12001092  0.53582251  0.75781544     0.01600
C760        C  0.14735988  0.57310572  0.77426693    -0.00720
C761        C  0.16571049  0.61073100  0.75613239    -0.12450
C762        C  0.16208182  0.61161463  0.72135805     0.01480
H763        H  0.10000016  0.50715858  0.70939731     0.14460
H764        H  0.18543262  0.63942548  0.76881888     0.14460
C765        C  0.18796632  0.65063184  0.70385753     0.36120
C766        C  0.10089275  0.49638143  0.77576118     0.36020
N767        N  0.20947658  0.68228493  0.69070685    -0.44230
N768        N  0.08650358  0.46490152  0.79034310    -0.44220
C769        C  0.21717590  0.46091649  0.72628702    -0.00640
C770        C  0.23721528  0.43882600  0.71579592    -0.12510
C771        C  0.26634431  0.43416453  0.73735112     0.01600
C772        C  0.27261523  0.44778045  0.77125850    -0.00720
C773        C  0.24562925  0.46149400  0.78304525    -0.12450
C774        C  0.22050061  0.47057761  0.76085379     0.01480
H775        H  0.23482162  0.43055000  0.68934525     0.14460
H776        H  0.24843392  0.47047495  0.80925936     0.14460
C777        C  0.20231474  0.49399329  0.77367586     0.36120
C778        C  0.29227196  0.41963059  0.72292936     0.36020
N779        N  0.18906172  0.51372789  0.78458776    -0.44230
N780        N  0.31268865  0.40786840  0.71070443    -0.44220
C781        C  0.55200667  0.54887686  0.65360597    -0.00640
C782        C  0.51760228  0.51369410  0.63790945    -0.12510
C783        C  0.50569677  0.47224235  0.64610535     0.01600
C784        C  0.53034043  0.46345846  0.66866545    -0.00720
C785        C  0.56433039  0.49803180  0.68505824    -0.12450
C786        C  0.57467763  0.54005945  0.67843681     0.01480
H787        H  0.49958906  0.51787382  0.61779981     0.14460
H788        H  0.58518190  0.49231700  0.70094289     0.14460
C789        C  0.61105551  0.57321722  0.69475215     0.36120
C790        C  0.47054058  0.43960251  0.62789004     0.36020
N791        N  0.64037731  0.59969802  0.70792309    -0.44230
N792        N  0.44237434  0.41360769  0.61321215    -0.44220
C793        C  0.55696702  0.74519660  0.71577695    -0.00640
C794        C  0.54106037  0.77096067  0.70408673    -0.12510
C795        C  0.53751033  0.79912703  0.72518492     0.01600
C796        C  0.55253346  0.80542960  0.75885755    -0.00720
C797        C  0.57351180  0.78355633  0.76954524    -0.12450
C798        C  0.57449017  0.75269385  0.74896877     0.01480
H799        H  0.52729925  0.76615112  0.67882608     0.14460
H800        H  0.58477682  0.78689705  0.79554700     0.14460
C801        C  0.58916441  0.72638262  0.76405718     0.36120
C802        C  0.51386600  0.81750424  0.71217415     0.36020
N803        N  0.60076168  0.70550479  0.77703173    -0.44230
N804        N  0.49393917  0.83069640  0.70032325    -0.44220
C805        C  0.48591506  0.55005346  0.70766016    -0.00640
C806        C  0.45409382  0.50946917  0.71423475    -0.12510
C807        C  0.44702432  0.49535407  0.74771275     0.01600
C808        C  0.47103460  0.52337977  0.77365654    -0.00720
C809        C  0.50977735  0.55699340  0.76609283    -0.12450
C810        C  0.51699338  0.57165599  0.73296985     0.01480
H811        H  0.43149937  0.49161033  0.69455356     0.14460
H812        H  0.52991078  0.57676931  0.78629916     0.14460
C813        C  0.55411845  0.61114036  0.72744807     0.36120
C814        C  0.41026159  0.45611199  0.75537531     0.36020
N815        N  0.58529565  0.64226588  0.72535652    -0.44230
N816        N  0.38106243  0.42435243  0.76145383    -0.44220
C817        C  0.37368298  0.54280582  0.60921370    -0.00640
C818        C  0.35636760  0.52118091  0.63919412    -0.12510
C819        C  0.31435216  0.50626800  0.64483657     0.01600
C820        C  0.28674315  0.50011985  0.61704557    -0.00720
C821        C  0.30377285  0.51132036  0.58443827    -0.12450
C822        C  0.34742869  0.53563639  0.58068407     0.01480
H823        H  0.37697834  0.52576564  0.66088465     0.14460
H824        H  0.28336678  0.50784269  0.56306167     0.14460
C825        C  0.36366239  0.55771719  0.54930545     0.36120
C826        C  0.30659999  0.51399036  0.67877887     0.36020
N827        N  0.37644965  0.57606205  0.52427320    -0.44230
N828        N  0.30541867  0.52455965  0.70588996    -0.44220
C829        C  0.47714899  0.97001286  0.66017625    -0.00640
C830        C  0.51219046  0.96969463  0.64577549    -0.12510
C831        C  0.55349024  0.99585628  0.65575127     0.01600
C832        C  0.56319326  0.03170593  0.67352936    -0.00720
C833        C  0.52962346  0.03152688  0.69095718    -0.12450
C834        C  0.48690125  0.00016730  0.68528943     0.01480
H835        H  0.50870444  0.94980614  0.62509989     0.14460
H836        H  0.53624270  0.05787500  0.70643482     0.14460
C837        C  0.45415019  0.00203837  0.70294072     0.36120
C838        C  0.58603725  0.99180826  0.63924052     0.36020
N839        N  0.42790137  0.00342684  0.71737644    -0.44230
N840        N  0.61189138  0.98860327  0.62583618    -0.44220
C841        C  0.29342229  0.78709414  0.72556225    -0.00640
C842        C  0.25113266  0.77740967  0.72754412    -0.12510
C843        C  0.22427001  0.75067451  0.75364215     0.01600
C844        C  0.23937260  0.73285076  0.77854567    -0.00720
C845        C  0.28223518  0.74491816  0.77726293    -0.12450
C846        C  0.30853113  0.77068345  0.75149860     0.01480
H847        H  0.23833774  0.78872434  0.70768332     0.14460
H848        H  0.29565183  0.73324537  0.79635588     0.14460
C849        C  0.35101302  0.77821939  0.75178080     0.36120
C850        C  0.18103036  0.74037529  0.75322036     0.36020
N851        N  0.38474820  0.78347543  0.75222578    -0.44230
N852        N  0.14628268  0.73208447  0.75288827    -0.44220
C853        C  0.45341171  0.89716021  0.78542641    -0.00640
C854        C  0.49142327  0.91469868  0.76777955    -0.11790
C855        C  0.49130330  0.91083339  0.73284227     0.01600
C856        C  0.45260284  0.89096574  0.71601754    -0.00720
C857        C  0.41695488  0.88596771  0.73258465    -0.12450
C858        C  0.41712872  0.88918194  0.76757219     0.01480
H859        H  0.52008046  0.92225071  0.78110763     0.14460
H860        H  0.38778061  0.87449008  0.71900847     0.14460
C861        C  0.37830485  0.87621404  0.78468855     0.36120
C862        C  0.52993690  0.92122120  0.71650963     0.36020
N863        N  0.34701114  0.86593101  0.79812215    -0.44230
N864        N  0.56137087  0.92957351  0.70415570    -0.44220
C865        C  0.28188917  0.74564307  0.58431336    -0.00640
C866        C  0.24163254  0.72449253  0.59738364    -0.12510
C867        C  0.22231022  0.68141086  0.60240662     0.01600
C868        C  0.24452531  0.66030134  0.59518331    -0.00720
C869        C  0.27985685  0.68009960  0.57490549    -0.12450
C870        C  0.29658123  0.72242268  0.56693070     0.01480
H871        H  0.22831060  0.74181438  0.60847055     0.14460
H872        H  0.29461325  0.66301312  0.56604553     0.14460
C873        C  0.33428577  0.74341837  0.54729455     0.36120
C874        C  0.18088068  0.66019788  0.61655320     0.36020
N875        N  0.36445458  0.76050190  0.53153928    -0.44230
N876        N  0.14742713  0.64343956  0.62738584    -0.44220
C877        C  0.47156123  0.79002772  0.59844625    -0.00640
C878        C  0.45283154  0.75394346  0.57911295    -0.12510
C879        C  0.47363831  0.73160846  0.57501257     0.01600
C880        C  0.51103719  0.74334474  0.59357134    -0.00720
C881        C  0.53337886  0.78349152  0.60685319    -0.12450
C882        C  0.51381331  0.80744398  0.60896289     0.01480
H883        H  0.42130349  0.74205302  0.56903666     0.14460
H884        H  0.56318515  0.79360964  0.61977879     0.14460
C885        C  0.53600365  0.84764483  0.62492090     0.36120
C886        C  0.45352017  0.69355826  0.55592520     0.36020
N887        N  0.55396119  0.88009414  0.63732853    -0.44230
N888        N  0.43776216  0.66315358  0.54050310    -0.44220
C889        C  0.90473710  0.36004740  0.02911075    -0.00640
C890        C  0.87716479  0.32336836  0.01196427    -0.12510
C891        C  0.87790066  0.32199440  0.97659576     0.01600
C892        C  0.90493381  0.35839359  0.95839936    -0.00720
C893        C  0.93678734  0.39237878  0.97591168    -0.12450
C894        C  0.93759914  0.39274379  0.01127977     0.01480
H895        H  0.85271836  0.29726095  0.02579566     0.14460
H896        H  0.95917781  0.41978522  0.96196622     0.14460
C897        C  0.97214307  0.42664148  0.02876935     0.36120
C898        C  0.84981794  0.28368296  0.95973057     0.36020
N899        N  0.00087548  0.45315000  0.04251241    -0.44230
N900        N  0.82823297  0.25203318  0.94697877    -0.44220
C901        C  0.51362293  0.10166923  0.97279221    -0.00640
C902        C  0.54200215  0.09380126  0.99225141    -0.12510
C903        C  0.54153956  0.09189390  0.02795683     0.01600
C904        C  0.51151405  0.09689327  0.04558515    -0.00720
C905        C  0.48133512  0.10182795  0.02592511    -0.12450
C906        C  0.48250963  0.10487044  0.99031811     0.01480
H907        H  0.56609127  0.09066784  0.97960116     0.14460
H908        H  0.45751441  0.10553442  0.03843504     0.14460
C909        C  0.45315739  0.11419533  0.97282949     0.36120
C910        C  0.57376627  0.08716383  0.04561473     0.36020
N911        N  0.42979548  0.12197003  0.95887865    -0.44230
N912        N  0.59970594  0.08344403  0.05969503    -0.44220
C913        C  0.75622069  0.22561664  0.08752316    -0.00640
C914        C  0.74162224  0.20493656  0.11847349    -0.12510
C915        C  0.70083853  0.19310167  0.12817449     0.01600
C916        C  0.67304134  0.19754831  0.10501877    -0.00720
C917        C  0.68486562  0.20720628  0.07109590    -0.12450
C918        C  0.72588287  0.21832962  0.06189012     0.01480
H919        H  0.76400120  0.20677910  0.13775498     0.14460
H920        H  0.66274702  0.20680441  0.05224344     0.14460
C921        C  0.73946239  0.23206060  0.02781475     0.36120
C922        C  0.68972641  0.18008519  0.16297455     0.36020
N923        N  0.75176371  0.24358893  0.00082868    -0.44230
N924        N  0.68094818  0.16963499  0.19083253    -0.44220
C925        C  0.64535556  0.52996094  0.02632544    -0.00640
C926        C  0.68397735  0.54757331  0.00999706    -0.12510
C927        C  0.68540843  0.54685954  0.97444238     0.01600
C928        C  0.64763762  0.52669928  0.95534277    -0.00720
C929        C  0.60971159  0.51413000  0.97158150    -0.12450
C930        C  0.60839488  0.51627193  0.00669313     0.01480
H931        H  0.71258981  0.55876266  0.02496309     0.14460
H932        H  0.58063960  0.50000922  0.95697475     0.14460
C933        C  0.56822493  0.50114966  0.02234994     0.36120
C934        C  0.72567086  0.56482354  0.95863073     0.36020
N935        N  0.53613112  0.48918733  0.03496472    -0.44230
N936        N  0.75835807  0.58041065  0.94645052    -0.44220
C937        C  0.75563765  0.48757685  0.10315969    -0.00640
C938        C  0.76705303  0.48868115  0.06901280    -0.12510
C939        C  0.77614052  0.45781034  0.05739499     0.01600
C940        C  0.76326022  0.42102904  0.07716840    -0.00720
C941        C  0.74948196  0.42082543  0.10964568    -0.12450
C942        C  0.75897942  0.45803978  0.12437292     0.01480
H943        H  0.76815998  0.51243604  0.05180690     0.14460
H944        H  0.73670431  0.39300208  0.12535375     0.14460
C945        C  0.75545680  0.45682257  0.16068738     0.36120
C946        C  0.79898650  0.46463820  0.02671113     0.36020
N947        N  0.75181148  0.45262539  0.18974224    -0.44230
N948        N  0.81906436  0.47061643  0.00297480    -0.44220
C949        C  0.51382964  0.24884819  0.09599956    -0.00640
C950        C  0.51238716  0.26708781  0.12590316    -0.12510
C951        C  0.54131713  0.30818926  0.13284807     0.01600
C952        C  0.56601718  0.33456164  0.10657124    -0.00720
C953        C  0.56183805  0.31821648  0.07397202    -0.12450
C954        C  0.53735981  0.27501546  0.06896223     0.01480
H955        H  0.49603657  0.24701870  0.14656166     0.14460
H956        H  0.58029670  0.33842823  0.05340431     0.14460
C957        C  0.53992129  0.25762505  0.03736576     0.36120
C958        C  0.54904328  0.32021040  0.16800017     0.36020
N959        N  0.54205081  0.24352831  0.01212966    -0.44230
N960        N  0.55662707  0.32895582  0.19624904    -0.44220
C961        C  0.62850131  0.09887402  0.45694936    -0.00640
C962        C  0.58940951  0.07659329  0.47264323    -0.12510
C963        C  0.58592797  0.07578366  0.50795906     0.01600
C964        C  0.62205615  0.09776242  0.52873659    -0.00720
C965        C  0.66143125  0.11593861  0.51354088    -0.12450
C966        C  0.66501071  0.11657887  0.47804082     0.01480
H967        H  0.56105671  0.06181723  0.45719615     0.14460
H968        H  0.68943265  0.13253756  0.52917263     0.14460
C969        C  0.70656105  0.13843363  0.46422311     0.36120
C970        C  0.54455319  0.05341975  0.52217100     0.36020
N971        N  0.73997849  0.15582906  0.45333072    -0.44230
N972        N  0.51141633  0.03549226  0.53354951    -0.44220
C973        C  0.58396138  0.21542603  0.30388392    -0.00640
C974        C  0.55848163  0.17454648  0.29327823    -0.12510
C975        C  0.56271930  0.16239748  0.26134721     0.01600
C976        C  0.59111926  0.19246187  0.23852916    -0.00720
C977        C  0.60970790  0.23487278  0.24715525    -0.12450
C978        C  0.60592762  0.24650545  0.27951697     0.01480
H979        H  0.53703745  0.15126003  0.31084926     0.14460
H980        H  0.62822432  0.25913093  0.22894974     0.14460
C981        C  0.62792927  0.29005393  0.28812681     0.36120
C982        C  0.53325320  0.12018598  0.25228202     0.36020
N983        N  0.64566714  0.32512005  0.29461501    -0.44230
N984        N  0.50714424  0.08654125  0.24676361    -0.44220
C985        C  0.77446090  0.27638563  0.21329924    -0.00640
C986        C  0.79235836  0.25985993  0.23672134    -0.12510
C987        C  0.77063247  0.23685199  0.26635069     0.01600
C988        C  0.73073052  0.23132600  0.27457231    -0.00720
C989        C  0.71328265  0.24784994  0.25134989    -0.12450
C990        C  0.73344201  0.26858946  0.22103881     0.01480
H991        H  0.82275211  0.26353899  0.23133339     0.14460
H992        H  0.68328288  0.24444620  0.25708586     0.14460
C993        C  0.71039965  0.28124004  0.19826555     0.36120
C994        C  0.78939599  0.21800990  0.28737833     0.36020
N995        N  0.69134857  0.29072772  0.18004766    -0.44230
N996        N  0.80426609  0.20246903  0.30403694    -0.44220
C997        C  0.91423859  0.50547454  0.44847720    -0.00640
C998        C  0.94330466  0.53964421  0.46815525    -0.12510
C999        C  0.94068799  0.53896766  0.50405201     0.01600
C1000       C  0.90927135  0.50322111  0.52070921    -0.00720
C1001       C  0.88095025  0.46982150  0.50081714    -0.12450
C1002       C  0.88124738  0.47178460  0.46566223     0.01480
H1003       H  0.96707901  0.56735477  0.45557112     0.14460
H1004       H  0.85658465  0.44223210  0.51301958     0.14460
C1005       C  0.84269317  0.44268861  0.44913814     0.36120
C1006       C  0.97061499  0.57466740  0.52302527     0.36020
N1007       N  0.80953704  0.41994833  0.43878372    -0.44230
N1008       N  0.99457363  0.60346038  0.53818199    -0.44220
C1009       C  0.82618488  0.41394850  0.25708969    -0.00640
C1010       C  0.85696623  0.44349958  0.23574490    -0.12510
C1011       C  0.84814617  0.44495376  0.20136923     0.01600
C1012       C  0.80847296  0.41588088  0.18847746    -0.00720
C1013       C  0.77690414  0.38921663  0.21086049    -0.12450
C1014       C  0.78600584  0.38669949  0.24454398     0.01480
H1015       H  0.88677755  0.46696287  0.24630031     0.14460
H1016       H  0.74564800  0.36805365  0.20140404     0.14460
C1017       C  0.75368367  0.35650576  0.26632062     0.36120
C1018       C  0.87891346  0.47778483  0.18038716     0.36020
N1019       N  0.72870756  0.33253504  0.28442703    -0.44230
N1020       N  0.90277417  0.50499927  0.16370854    -0.44220
C1021       C  0.74670454  0.53683380  0.21881373    -0.00640
C1022       C  0.78469415  0.53724607  0.21236423    -0.12510
C1023       C  0.81250308  0.53881876  0.23888057     0.01600
C1024       C  0.80258872  0.53883170  0.27316506    -0.00720
C1025       C  0.76854688  0.54572101  0.27886951    -0.12450
C1026       C  0.74192158  0.54612385  0.25218700     0.01480
H1027       H  0.79221198  0.53515377  0.18641830     0.14460
H1028       H  0.76238667  0.55092387  0.30419761     0.14460
C1029       C  0.71165312  0.55878622  0.25892334     0.36120
C1030       C  0.85143407  0.54107954  0.23060986     0.36020
N1031       N  0.68880842  0.57117236  0.26318356    -0.44230
N1032       N  0.88375672  0.54469683  0.22492877    -0.44220
C1033       C  0.80624575  0.34189032  0.38437585    -0.00640
C1034       C  0.79811882  0.32683781  0.41787304    -0.12510
C1035       C  0.78590212  0.28501836  0.42530298     0.01600
C1036       C  0.77954233  0.25742997  0.39864930    -0.00720
C1037       C  0.79798773  0.27495936  0.36769361    -0.12450
C1038       C  0.80909868  0.31621125  0.35964848     0.01480
H1039       H  0.79959598  0.34686584  0.43800562     0.14460
H1040       H  0.79591450  0.25461512  0.34760541     0.14460
C1041       C  0.82101855  0.32973042  0.32519057     0.36120
C1042       C  0.77265267  0.26906974  0.45913946     0.36020
N1043       N  0.83022060  0.33812220  0.29713328    -0.44230
N1044       N  0.76185915  0.25603114  0.48617598    -0.44220
C1045       C  0.51447644  0.38598438  0.46677351    -0.00640
C1046       C  0.54383248  0.42255667  0.48374243    -0.12510
C1047       C  0.54321210  0.42684293  0.51911906     0.01600
C1048       C  0.51267348  0.39393598  0.53913369    -0.00720
C1049       C  0.48145117  0.35870698  0.52179353    -0.12450
C1050       C  0.48196815  0.35452275  0.48637973     0.01480
H1051       H  0.56865327  0.44773810  0.46948102     0.14460
H1052       H  0.45729754  0.33305667  0.53617227     0.14460
C1053       C  0.44932479  0.31677900  0.47128035     0.36120
C1054       C  0.57574177  0.46482071  0.53399817     0.36020
N1055       N  0.42303016  0.28654248  0.45921246    -0.44230
N1056       N  0.60195816  0.49543893  0.54561923    -0.44220
C1057       C  0.48871548  0.25081081  0.28240470    -0.00640
C1058       C  0.47779489  0.25949470  0.24999484    -0.12510
C1059       C  0.47428272  0.23514306  0.22108774     0.01600
C1060       C  0.48584919  0.20342253  0.22272583    -0.00720
C1061       C  0.48931068  0.19055298  0.25588922    -0.12450
C1062       C  0.49049612  0.21328009  0.28510844     0.01480
H1063       H  0.47105254  0.28477439  0.24716353     0.14460
H1064       H  0.49069990  0.16226190  0.25903502     0.14460
C1065       C  0.49147648  0.19635853  0.31813661     0.36120
C1066       C  0.44991791  0.23722354  0.19287095     0.36020
N1067       N  0.49203577  0.18257280  0.34459791    -0.44230
N1068       N  0.42893288  0.23837083  0.17101941    -0.44220
C1069       C  0.57155189  0.41512546  0.27348567    -0.00640
C1070       C  0.53913988  0.38353958  0.25400607    -0.12510
C1071       C  0.52856604  0.39297928  0.22224639     0.01600
C1072       C  0.55454612  0.43242192  0.20867567    -0.00720
C1073       C  0.57768151  0.46551682  0.23115369    -0.12450
C1074       C  0.58603570  0.45689751  0.26410698     0.01480
H1075       H  0.52321228  0.35161054  0.26302373     0.14460
H1076       H  0.59516413  0.49716291  0.22147436     0.14460
C1077       C  0.60853169  0.49044733  0.28759275     0.36120
C1078       C  0.49546479  0.36119070  0.20197800     0.36020
N1079       N  0.62490657  0.51624260  0.30764583    -0.44230
N1080       N  0.46877086  0.33613411  0.18548968    -0.44220
C1081       C  0.54828210  0.27035898  0.43158588    -0.00640
C1082       C  0.58810178  0.29225422  0.44738398    -0.12510
C1083       C  0.61203179  0.27292376  0.45282638     0.01600
C1084       C  0.59420790  0.23050959  0.44514241    -0.00720
C1085       C  0.55028392  0.20664057  0.44082815    -0.12450
C1086       C  0.52714135  0.22668460  0.43310510     0.01480
H1087       H  0.60387149  0.32606081  0.44816029     0.14460
H1088       H  0.53555095  0.17333057  0.43683390     0.14460
C1089       C  0.48420160  0.20252682  0.42168578     0.36120
C1090       C  0.65649511  0.29866407  0.45912638     0.36020
N1091       N  0.44965942  0.18321267  0.41268328    -0.44230
N1092       N  0.69217126  0.31936279  0.46381863    -0.44220
C1093       C  0.68862527  0.44210175  0.38900735    -0.00640
C1094       C  0.70538941  0.44754730  0.42219425    -0.12510
C1095       C  0.74545007  0.48134827  0.42900158     0.01600
C1096       C  0.76831994  0.50825396  0.40251311    -0.00720
C1097       C  0.74584426  0.51057717  0.37454772    -0.12450
C1098       C  0.70889529  0.47477775  0.36513085     0.01480
H1099       H  0.68820692  0.42509220  0.44200700     0.14460
H1100       H  0.76246215  0.53479202  0.35605471     0.14460
C1101       C  0.69503242  0.47095320  0.33025959     0.36120
C1102       C  0.76551155  0.48680794  0.46161541     0.36020
N1103       N  0.68507711  0.46761035  0.30197487    -0.44230
N1104       N  0.78347040  0.49382126  0.48721936    -0.44220
C1105       C  0.15954923  0.47486625  0.45935496    -0.00640
C1106       C  0.19658502  0.50279955  0.47612563    -0.12510
C1107       C  0.19889219  0.50311684  0.51125694     0.01600
C1108       C  0.16377850  0.47426706  0.53000141    -0.00720
C1109       C  0.12905316  0.44227817  0.51315259    -0.12450
C1110       C  0.12652658  0.44261383  0.47767599     0.01480
H1111       H  0.22214134  0.52726025  0.46183441     0.14460
H1112       H  0.10205120  0.42023768  0.52751629     0.14460
C1113       C  0.08793804  0.41316262  0.46104056     0.36120
C1114       C  0.23537473  0.53701517  0.52725289     0.36020
N1115       N  0.05700538  0.38966752  0.44763003    -0.44230
N1116       N  0.26422235  0.56473085  0.53983407    -0.44220
C1117       C  0.03851916  0.48122017  0.34710990    -0.00640
C1118       C  0.03272022  0.50794096  0.36919786    -0.12510
C1119       C  0.01044903  0.52847257  0.35971565     0.01600
C1120       C  0.98758677  0.51881833  0.32915045    -0.00720
C1121       C  0.99180638  0.49095356  0.30729682    -0.12450
C1122       C  0.01760194  0.47330643  0.31547496     0.01480
H1123       H  0.04771987  0.51510035  0.39397840     0.14460
H1124       H  0.97311834  0.48127990  0.28414362     0.14460
C1125       C  0.02000719  0.44546408  0.29184408     0.36120
C1126       C  0.01106250  0.55885663  0.38234393     0.36020
N1127       N  0.02188231  0.42312043  0.27280881    -0.44230
N1128       N  0.01229596  0.58385268  0.40018035    -0.44220
C1129       C  0.57222114  0.66086778  0.46198514    -0.00640
C1130       C  0.57145077  0.69389606  0.47775752    -0.12510
C1131       C  0.57329085  0.69622237  0.51298856     0.01600
C1132       C  0.57444077  0.66429354  0.53218704    -0.00720
C1133       C  0.58150185  0.63497115  0.51622514    -0.12450
C1134       C  0.58144650  0.63375563  0.48099235     0.01480
H1135       H  0.56666333  0.71612090  0.46271107     0.14460
H1136       H  0.58375126  0.61113040  0.53115480     0.14460
C1137       C  0.58919781  0.60361242  0.46493063     0.36120
C1138       C  0.57243292  0.73059306  0.52863384     0.36020
N1139       N  0.59663193  0.58018009  0.45221232    -0.44230
N1140       N  0.57315495  0.75935965  0.54029253    -0.44220
C1141       C  0.49195378  0.44407960  0.33928187    -0.00640
C1142       C  0.48962404  0.45967904  0.37044303    -0.12510
C1143       C  0.51108445  0.50261971  0.37728683     0.01600
C1144       C  0.53313588  0.53384737  0.35137295    -0.00720
C1145       C  0.53065499  0.51785609  0.31871832    -0.12450
C1146       C  0.50945526  0.47395838  0.31268426     0.01480
H1147       H  0.47644194  0.43775607  0.39149335     0.14460
H1148       H  0.54422579  0.53910967  0.29768249     0.14460
C1149       C  0.50038778  0.45926748  0.27850190     0.36120
C1150       C  0.50975344  0.51196844  0.41244713     0.36020
N1151       N  0.49076101  0.44673421  0.25128898    -0.44230
N1152       N  0.50715434  0.51792415  0.44068986    -0.44220
C1153       C  0.37000320  0.55528567  0.37355034    -0.00640
C1154       C  0.35271279  0.54519992  0.34103332    -0.12510
C1155       C  0.30998459  0.52549001  0.33579406     0.01600
C1156       C  0.28272761  0.51097587  0.36371749    -0.00720
C1157       C  0.30002503  0.51371186  0.39642142    -0.12450
C1158       C  0.34391913  0.53581919  0.40146386     0.01480
H1159       H  0.37285088  0.55741312  0.31914531     0.14460
H1160       H  0.27965192  0.50274701  0.41812110     0.14460
C1161       C  0.36138378  0.53882149  0.43492372     0.36120
C1162       C  0.29757721  0.53157314  0.30227498     0.36020
N1163       N  0.37610977  0.54041434  0.46142219    -0.44230
N1164       N  0.29232100  0.54108952  0.27535222    -0.44220
C1165       C  0.38641702  0.89587502  0.45982358    -0.00640
C1166       C  0.34732891  0.87131216  0.47496661    -0.12510
C1167       C  0.34400552  0.86936237  0.51030303     0.01600
C1168       C  0.38009656  0.89289098  0.53035045    -0.00720
C1169       C  0.41784173  0.92120118  0.51489134    -0.12450
C1170       C  0.42137515  0.92264935  0.47983127     0.01480
H1171       H  0.32040861  0.85069742  0.45947790     0.14460
H1172       H  0.44561325  0.93949058  0.53041922     0.14460
C1173       C  0.46179344  0.94966761  0.46510322     0.36120
C1174       C  0.30466508  0.83993531  0.52534032     0.36020
N1175       N  0.49413807  0.97116982  0.45324289    -0.44230
N1176       N  0.27302037  0.81636363  0.53727820    -0.44220
C1177       C  0.46116059  0.97734814  0.32503665    -0.00640
C1178       C  0.49957344  0.97943616  0.31685002    -0.12510
C1179       C  0.53852575  0.01685722  0.31766750     0.01600
C1180       C  0.54041162  0.05436930  0.32653204    -0.00720
C1181       C  0.50141592  0.05295989  0.33135901    -0.12450
C1182       C  0.46264381  0.01530490  0.33124043     0.01480
H1183       H  0.49999881  0.95090306  0.31297620     0.14460
H1184       H  0.50108393  0.08104357  0.33808401     0.14460
C1185       C  0.42563487  0.01580377  0.34175948     0.36120
C1186       C  0.57595365  0.01538898  0.31029445     0.36020
N1187       N  0.39598432  0.01611345  0.35043363    -0.44230
N1188       N  0.60583264  0.01404529  0.30410233    -0.44220
C1189       C  0.48041184  0.79331632  0.38652731    -0.00640
C1190       C  0.47700014  0.76965920  0.41570968    -0.12510
C1191       C  0.50094146  0.74967674  0.41907643     0.01600
C1192       C  0.53001132  0.75531259  0.39380790    -0.00720
C1193       C  0.53976262  0.78665429  0.36953339    -0.12450
C1194       C  0.51260254  0.80236582  0.36361881     0.01480
H1195       H  0.45273962  0.76315196  0.43379903     0.14460
H1196       H  0.56279244  0.79199885  0.35087426     0.14460
C1197       C  0.51419837  0.82198802  0.33139788     0.36120
C1198       C  0.49042133  0.71844710  0.44535658     0.36020
N1199       N  0.51386058  0.83580741  0.30496820    -0.44230
N1200       N  0.48156506  0.69322741  0.46633523    -0.44220
C1201       C  0.28651506  0.74142234  0.41110351    -0.00640
C1202       C  0.29797320  0.71384982  0.42680329    -0.12510
C1203       C  0.27296344  0.67089548  0.42237259     0.01600
C1204       C  0.23497292  0.65567452  0.40425424    -0.00720
C1205       C  0.21927324  0.68255639  0.39618957    -0.12450
C1206       C  0.24478358  0.72553993  0.39953359     0.01480
H1207       H  0.32932997  0.72591437  0.43736680     0.14460
H1208       H  0.18897910  0.67052191  0.38358335     0.14460
C1209       C  0.22971775  0.75214089  0.38535323     0.36120
C1210       C  0.28791886  0.64340903  0.43451045     0.36020
N1211       N  0.21764571  0.77332520  0.37374313    -0.44230
N1212       N  0.29968348  0.62121936  0.44429923    -0.44220
C1213       C  0.12967379  0.62952810  0.96599425    -0.00640
C1214       C  0.09331305  0.62639287  0.97981907    -0.12510
C1215       C  0.08820111  0.62444873  0.01521589     0.01600
C1216       C  0.12005836  0.62629687  0.03689014    -0.00720
C1217       C  0.15678750  0.63094710  0.02300719    -0.12450
C1218       C  0.16168091  0.63212494  0.98804255     0.01480
H1219       H  0.06835314  0.62378079  0.96305586     0.14460
H1220       H  0.18167360  0.63308002  0.03968227     0.14460
C1221       C  0.19985311  0.63557802  0.97544316     0.36120
C1222       C  0.05017157  0.62005717  0.02876621     0.36020
N1223       N  0.23035222  0.63805308  0.96554228    -0.44230
N1224       N  0.01967796  0.61650947  0.03972393    -0.44220
C1225       C  0.02575022  0.55515510  0.15801796    -0.00640
C1226       C  0.00695545  0.54359038  0.12613269    -0.12510
C1227       C  0.97588216  0.50253049  0.11915021     0.01600
C1228       C  0.96044035  0.47032323  0.14490805    -0.00720
C1229       C  0.97724989  0.48262463  0.17773939    -0.12450
C1230       C  0.00924978  0.52436361  0.18423420     0.01480
H1231       H  0.01957601  0.56601416  0.10539459     0.14460
H1232       H  0.96450253  0.46033603  0.19847642     0.14460
C1233       C  0.02364373  0.53603274  0.21849942     0.36120
C1234       C  0.96045739  0.49547738  0.08450799     0.36020
N1235       N  0.03426289  0.54602603  0.24613510    -0.44230
N1236       N  0.94796159  0.49115017  0.05685783    -0.44220
C1237       C  0.11994493  0.56072896  0.28398557    -0.00640
C1238       C  0.11303097  0.52333166  0.26926149    -0.12510
C1239       C  0.12191626  0.52246570  0.23514619     0.01600
C1240       C  0.13775840  0.55952259  0.21645186    -0.00720
C1241       C  0.13400924  0.59258486  0.22924913    -0.12450
C1242       C  0.12630371  0.59410499  0.26314536     0.01480
H1243       H  0.10718134  0.49699389  0.28511118     0.14460
H1244       H  0.14103416  0.61885469  0.21343481     0.14460
C1245       C  0.12992451  0.63171326  0.27674221     0.36120
C1246       C  0.11823030  0.48515988  0.22096841     0.36020
N1247       N  0.13282588  0.66184420  0.28766292    -0.44230
N1248       N  0.11504872  0.45515710  0.20950974    -0.44220
C1249       C  0.27355491  0.77022918  0.28210900    -0.00640
C1250       C  0.26513853  0.72879889  0.27843873    -0.12510
C1251       C  0.23868423  0.70240830  0.25307957     0.01600
C1252       C  0.21787917  0.71584387  0.22983832    -0.00720
C1253       C  0.22185614  0.75537018  0.23558860    -0.12450
C1254       C  0.24971634  0.78266353  0.26111230     0.01480
H1255       H  0.28071301  0.71664288  0.29487927     0.14460
H1256       H  0.20531836  0.76610101  0.21882338     0.14460
C1257       C  0.25345774  0.82303941  0.26488511     0.36120
C1258       C  0.23482883  0.66163597  0.25149339     0.36020
N1259       N  0.25621449  0.85537887  0.26795722    -0.44230
N1260       N  0.23293552  0.62943703  0.25158260    -0.44220
C1261       C  0.36849366  0.47859584  0.02981391    -0.00640
C1262       C  0.36799126  0.51112948  0.01133612    -0.12510
C1263       C  0.36650314  0.51098995  0.97617286     0.01600
C1264       C  0.36636999  0.47802979  0.95863930    -0.00720
C1265       C  0.36227470  0.44319076  0.97704163    -0.12450
C1266       C  0.36292424  0.44313051  0.01271223     0.01480
H1267       H  0.37043717  0.53773896  0.02454326     0.14460
H1268       H  0.36131946  0.41738825  0.96373310     0.14460
C1269       C  0.35999556  0.40763096  0.03097359     0.36120
C1270       C  0.36686411  0.54602456  0.95873298     0.36020
N1271       N  0.35704692  0.37873553  0.04540289    -0.44230
N1272       N  0.36731698  0.57412467  0.94479135    -0.44220
C1273       C  0.44777033  0.46203710  0.16746857    -0.00640
C1274       C  0.48116121  0.49285003  0.18746469    -0.12510
C1275       C  0.52438565  0.50883750  0.17986963     0.01600
C1276       C  0.53558895  0.49307939  0.15235973    -0.00720
C1277       C  0.50194492  0.45764904  0.13630976    -0.12450
C1278       C  0.45961653  0.44125176  0.14474393     0.01480
H1279       H  0.47324273  0.50714308  0.20715185     0.14460
H1280       H  0.50804186  0.44259164  0.11582269     0.14460
C1281       C  0.42806875  0.40665464  0.12557024     0.36120
C1282       C  0.55650693  0.54268610  0.19906466     0.36020
N1283       N  0.40286934  0.37870779  0.11033500    -0.44230
N1284       N  0.58340527  0.56969509  0.21392865    -0.44220
C1285       C  0.20534494  0.49005759  0.25345529    -0.00640
C1286       C  0.21896158  0.51953540  0.22701226    -0.12510
C1287       C  0.24612646  0.52091850  0.20194224     0.01600
C1288       C  0.26189282  0.49242892  0.20232304    -0.00720
C1289       C  0.24483974  0.46002426  0.22681386    -0.12450
C1290       C  0.21750669  0.45895162  0.25235456     0.01480
H1291       H  0.21093443  0.54401513  0.22740758     0.14460
H1292       H  0.25518195  0.43720634  0.22766601     0.14460
C1293       C  0.20718321  0.42898178  0.27962449     0.36120
C1294       C  0.25986328  0.55475136  0.17769529     0.36020
N1295       N  0.19936704  0.40528090  0.30171313    -0.44230
N1296       N  0.27261888  0.58225698  0.15853561    -0.44220
C1297       C  0.44573103  0.55983308  0.21879059    -0.00640
C1298       C  0.48860605  0.57962209  0.22581343    -0.12510
C1299       C  0.50273215  0.57713892  0.25833576     0.01600
C1300       C  0.47322968  0.55506591  0.28381016    -0.00720
C1301       C  0.43268780  0.52655381  0.27448231    -0.12450
C1302       C  0.41769581  0.53115750  0.24305156     0.01480
H1303       H  0.51056463  0.59835196  0.20647352     0.14460
H1304       H  0.41061217  0.50801920  0.29406764     0.14460
C1305       C  0.37304502  0.50884207  0.23946771     0.36120
C1306       C  0.54672713  0.60246223  0.26612708     0.36020
N1307       N  0.33706089  0.48992431  0.24119122    -0.44230
N1308       N  0.58238927  0.62234012  0.27135562    -0.44220
C1309       C  0.21736340  0.55834135  0.07815248    -0.00640
C1310       C  0.25547743  0.58299309  0.06200676    -0.12510
C1311       C  0.28415393  0.56883214  0.05953964     0.01600
C1312       C  0.27551175  0.53076710  0.07546555    -0.00720
C1313       C  0.23412520  0.50280557  0.08479254    -0.12450
C1314       C  0.20479263  0.51640802  0.08607044     0.01480
H1315       H  0.26464291  0.61483510  0.05469578     0.14460
H1316       H  0.22634389  0.47275615  0.09588714     0.14460
C1317       C  0.16430289  0.48891611  0.10037193     0.36120
C1318       C  0.32401563  0.59596091  0.04419622     0.36020
N1319       N  0.13175805  0.46681590  0.11166092    -0.44230
N1320       N  0.35566398  0.61771390  0.03145374    -0.44220
C1321       C  0.55932838  0.87031557  0.95412598    -0.00640
C1322       C  0.58279190  0.90938129  0.96952384    -0.12510
C1323       C  0.58362910  0.91233066  0.00497032     0.01600
C1324       C  0.56319224  0.87562888  0.02467907    -0.00720
C1325       C  0.54717118  0.83708353  0.00927850    -0.12450
C1326       C  0.54179730  0.83384302  0.97437313     0.01480
H1327       H  0.59546886  0.93753129  0.95407476     0.14460
H1328       H  0.53376205  0.80934630  0.02484963     0.14460
C1329       C  0.51106803  0.79387464  0.96091493     0.36120
C1330       C  0.60160711  0.95281115  0.02031479     0.36020
N1331       N  0.48487649  0.76240601  0.95050237    -0.44230
N1332       N  0.61601969  0.98521053  0.03274700    -0.44220
C1333       C  0.49305710  0.01890448  0.15632911    -0.00640
C1334       C  0.49429587  0.00845386  0.12272303    -0.12510
C1335       C  0.51594242  0.98760996  0.11346651     0.01600
C1336       C  0.53552670  0.97341569  0.13833292    -0.00720
C1337       C  0.53388294  0.98374701  0.17189867    -0.12450
C1338       C  0.51199496  0.00454012  0.18097882     0.01480
H1339       H  0.48093519  0.01939522  0.10303313     0.14460
H1340       H  0.54891195  0.97498045  0.19142342     0.14460
C1341       C  0.50683807  0.00799578  0.21641083     0.36120
C1342       C  0.51858261  0.98296214  0.07749104     0.36020
N1343       N  0.50170508  0.00865191  0.24504467    -0.44230
N1344       N  0.52050945  0.97924136  0.04868013    -0.44220
C1345       C  0.56332381  0.79440366  0.21529694    -0.00640
C1346       C  0.56000030  0.75560087  0.20748262    -0.12510
C1347       C  0.56384751  0.72941488  0.23255522     0.01600
C1348       C  0.56740739  0.73923679  0.26722871    -0.00720
C1349       C  0.57503347  0.77973203  0.27448885    -0.12450
C1350       C  0.57457452  0.80752956  0.24918416     0.01480
H1351       H  0.55390507  0.74533476  0.18142672     0.14460
H1352       H  0.58098062  0.78969539  0.30038409     0.14460
C1353       C  0.58578529  0.84895097  0.25929537     0.36120
C1354       C  0.56807008  0.69497086  0.22163842     0.36020
N1355       N  0.59625762  0.88205122  0.26899726    -0.44230
N1356       N  0.57452448  0.66947410  0.21195011    -0.44220
C1357       C  0.47130286  0.89202653  0.20341558    -0.00640
C1358       C  0.43364272  0.88849480  0.21286736    -0.12510
C1359       C  0.42380569  0.88419446  0.24701286     0.01600
C1360       C  0.45218498  0.88315602  0.27144449    -0.00720
C1361       C  0.49326565  0.89726064  0.26233244    -0.12450
C1362       C  0.50307956  0.90133697  0.22832520     0.01480
H1363       H  0.40998999  0.88371883  0.19376346     0.14460
H1364       H  0.51663475  0.90127598  0.28136490     0.14460
C1365       C  0.54524987  0.91229119  0.22019586     0.36120
C1366       C  0.38492985  0.88180147  0.25544587     0.36020
N1367       N  0.58012616  0.92371568  0.21502512    -0.44230
N1368       N  0.35418660  0.88230867  0.25946406    -0.44220
C1369       C  0.36318996  0.78527621  0.10317380    -0.00640
C1370       C  0.34313456  0.79424796  0.12868907    -0.12510
C1371       C  0.29971328  0.77768887  0.12769937     0.01600
C1372       C  0.27543442  0.74889594  0.10251462    -0.00720
C1373       C  0.29596723  0.74496242  0.07453595    -0.12450
C1374       C  0.33970330  0.76373620  0.07434375     0.01480
H1375       H  0.36138338  0.81366060  0.14975059     0.14460
H1376       H  0.27761748  0.72356234  0.05451265     0.14460
C1377       C  0.35875032  0.75801111  0.04517372     0.36120
C1378       C  0.28080370  0.78944569  0.15349710     0.36020
N1379       N  0.37245468  0.75322621  0.02079394    -0.44230
N1380       N  0.26654278  0.80073763  0.17362000    -0.44220
C1381       C  0.51924610  0.74854965  0.08569228    -0.00640
C1382       C  0.53653107  0.72715223  0.10319144    -0.12510
C1383       C  0.51204764  0.68403334  0.10782148     0.01600
C1384       C  0.47129293  0.66329340  0.09376686    -0.00720
C1385       C  0.45933878  0.68310906  0.06937112    -0.12450
C1386       C  0.48400071  0.72575148  0.06420925     0.01480
H1387       H  0.56508109  0.74428761  0.11809285     0.14460
H1388       H  0.42903304  0.66624231  0.05693301     0.14460
C1389       C  0.46642044  0.74612411  0.04370072     0.36120
C1390       C  0.52809674  0.66201625  0.12812379     0.36020
N1391       N  0.45239394  0.76255778  0.02724127    -0.44230
N1392       N  0.54106454  0.64381362  0.14355123    -0.44220
loop_ 
_geom_bond_atom_site_label_1 
_geom_bond_atom_site_label_2 
_geom_bond_distance 
_geom_bond_site_symmetry_2 
_ccdc_geom_bond_type 
O1           C16   1.272       .  A
O1           Al9   1.951       .  S
C2           O12   1.284       .  A
C2            O3   1.302       .  A
C2         C1357   1.449       .  S
O3           Al5   1.989       .  S
O4            C6   1.234       .  A
O4           Al5   1.859       .  S
Al5          O13   1.896       .  S
Al5          O15   1.884       .  S
Al5          O14   1.742       .  S
C6           O19   1.294       .  A
C6         C1336   1.536       .  S
O7           C17   1.272       .  A
O7           Al9   2.018       .  S
O8           C21   1.292       .  A
O8          Al18   1.841       .  S
Al9          O22   1.995       .  S
Al9          O19   2.077       .  S
Al9          O14   1.730       .  S
O10          C17   1.244       .  A
O10         Al18   1.903       .  S
O11          C20   1.245       .  A
O11         Al18   1.909       .  S
O12         Al18   1.841       .  S
O13          C20   1.238       .  A
O14         Al18   1.724       .  S
O15          C16   1.272       .  A
C16        C1324   1.464       .  S
C17        C1345   1.531       .  S
C20        C1369   1.476       .  S
C21          O22   1.306       .  A
C21        C1381   1.458       .  S
O23          C38   1.263       .  A
O23         Al31   1.934       .  S
C24          O34   1.273       .  A
C24          O25   1.291       .  A
C24        C1297   1.463       .  S
O25         Al27   1.961       .  S
O26          C28   1.237       .  A
O26         Al27   1.789       .  S
Al27         O35   1.852       .  S
Al27         O37   1.851       .  S
Al27         O36   1.754       .  S
C28          O41   1.290       .  A
C28        C1273   1.502       .  S
O29          C39   1.272       .  A
O29         Al31   1.999       .  S
O30          C43   1.285       .  A
O30         Al40   1.873       .  S
Al31         O44   1.989       .  S
Al31         O41   2.040       .  S
Al31         O36   1.756       .  S
O32          C39   1.242       .  A
O32         Al40   1.870       .  S
O33          C42   1.248       .  A
O33         Al40   1.929       .  S
O34         Al40   1.855       .  S
O35          C42   1.227       .  A
O36         Al40   1.757       .  S
O37          C38   1.254       .  A
C38        C1261   1.470       .  S
C39        C1288   1.538       .  S
C42        C1384   1.449       .  S
C43          O44   1.300       .  A
C43        C1312   1.480       .  S
O45          C60   1.259       .  A
O45         Al53   1.887       .  S
C46          O56   1.258       .  A
C46          O47   1.262       .  A
C46        C1240   1.469       .  S
O47         Al49   1.908       .  S
O48          C50   1.235       .  A
O48         Al49   1.841       .  S
Al49         O57   1.892       .  S
Al49         O59   1.938       .  S
Al49         O58   1.787       .  S
C50          O63   1.286       .  A
C50        C1225   1.495       .  S
O51          C61   1.283       .  A
O51         Al53   1.970       .  S
O52          C65   1.258       .  A
O52         Al62   1.859       .  S
Al53         O66   1.976       .  S
Al53         O63   2.044       .  S
Al53         O58   1.789       .  S
O54          C61   1.269       .  A
O54         Al62   1.933       .  S
O55          C64   1.261       .  A
O55         Al62   1.906       .  S
O56         Al62   1.867       .  S
O57          C64   1.254       .  A
O58         Al62   1.761       .  S
O59          C60   1.268       .  A
C60        C1216   1.473       .  S
C61        C1252   1.516       .  S
C64        C1309   1.466       .  S
C65          O66   1.276       .  A
C65        C1372   1.471       .  S
O67          C82   1.266       .  A
O67         Al75   1.925       .  S
C68          O78   1.278       .  A
C68          O69   1.295       .  A
C68        C1360   1.461       .  S
O69         Al71   1.964       .  S
O70          C72   1.243       .  A
O70         Al71   1.840       .  S
Al71         O79   1.900       .  S
Al71         O81   1.867       .  S
Al71         O80   1.746       .  S
C72          O85   1.287       .  A
C72        C1177   1.504       .  S
O73          C83   1.268       .  A
O73         Al75   2.007       .  S
O74          C87   1.289       .  A
O74         Al84   1.866       .  S
Al75         O88   1.980       .  S
Al75         O85   2.026       .  S
Al75         O80   1.741       .  S
O76          C83   1.241       .  A
O76         Al84   1.867       .  S
O77          C86   1.245       .  A
O77         Al84   1.913       .  S
O78         Al84   1.860       .  S
O79          C86   1.238       .  A
O80         Al84   1.736       .  S
O81          C82   1.262       .  A
C82        C1165   1.463       .  S
C83        C1249   1.529       .  S
C86        C1189   1.472       .  S
C87          O88   1.301       .  A
C87        C1201   1.471       .  S
O89         C104   1.275       .  A
O89         Al97   1.946       .  S
C90         O100   1.287       .  A
C90          O91   1.298       .  A
C90        C1300   1.444       .  S
O91         Al93   1.971       .  S
O92          C94   1.229       .  A
O92         Al93   1.864       .  S
Al93        O101   1.892       .  S
Al93        O103   1.881       .  S
Al93        O102   1.751       .  S
C94         O107   1.296       .  A
C94        C1144   1.554       .  S
O95         C105   1.272       .  A
O95         Al97   2.024       .  S
O96         C109   1.288       .  A
O96        Al106   1.848       .  S
Al97        O110   2.025       .  S
Al97        O107   2.110       .  S
Al97        O102   1.722       .  S
O98         C105   1.244       .  A
O98        Al106   1.915       .  S
O99         C108   1.243       .  A
O99        Al106   1.859       .  S
O100       Al106   1.851       .  S
O101        C108   1.237       .  A
O102       Al106   1.714       .  S
O103        C104   1.274       .  A
C104       C1129   1.452       .  S
C105       C1348   1.532       .  S
C108       C1153   1.477       .  S
C109        O110   1.312       .  A
C109       C1192   1.468       .  S
O111        C126   1.282       .  A
O111       Al119   1.964       .  S
C112        O122   1.273       .  A
C112        O113   1.264       .  A
C112       C1237   1.449       .  S
O113       Al115   1.892       .  S
O114        C116   1.239       .  A
O114       Al115   1.892       .  S
Al115       O123   1.864       .  S
Al115       O125   1.868       .  S
Al115       O124   1.791       .  S
C116        O129   1.282       .  A
C116       C1117   1.535       .  S
O117        C127   1.264       .  A
O117       Al119   1.938       .  S
O118        C131   1.257       .  A
O118       Al128   1.834       .  S
Al119       O132   1.955       .  S
Al119       O129   2.060       .  S
Al119       O124   1.774       .  S
O120        C127   1.265       .  A
O120       Al128   1.921       .  S
O121        C130   1.253       .  A
O121       Al128   1.918       .  S
O122       Al128   1.914       .  S
O123        C130   1.241       .  A
O124       Al128   1.754       .  S
O125        C126   1.275       .  A
C126       C1105   1.461       .  S
C127       C1285   1.522       .  S
C130       C1204   1.464       .  S
C131        O132   1.276       .  A
C131       C1156   1.467       .  S
O133        C148   1.269       .  A
O133       Al141   1.949       .  S
C134        O144   1.268       .  A
C134        O135   1.282       .  A
C134       C1069   1.467       .  S
O135       Al137   1.935       .  S
O136        C138   1.239       .  A
O136       Al137   1.796       .  S
Al137       O145   1.874       .  S
Al137       O147   1.898       .  S
Al137       O146   1.753       .  S
C138        O151   1.289       .  A
C138       C1141   1.497       .  S
O139        C149   1.281       .  A
O139       Al141   2.039       .  S
O140        C153   1.272       .  A
O140       Al150   1.817       .  S
Al141       O154   2.005       .  S
Al141       O151   2.033       .  S
Al141       O146   1.746       .  S
O142        C149   1.255       .  A
O142       Al150   1.927       .  S
O143        C152   1.260       .  A
O143       Al150   1.964       .  S
O144       Al150   1.846       .  S
O145        C152   1.237       .  A
O146       Al150   1.795       .  S
O147        C148   1.259       .  A
C148       C1045   1.517       .  S
C149       C1057   1.547       .  S
C152       C1093   1.464       .  S
C153        O154   1.296       .  A
C153       C1081   1.475       .  S
O155        C170   1.259       .  A
O155       Al163   1.872       .  S
C156        O166   1.252       .  A
C156        O157   1.265       .  A
C156       C1009   1.431       .  S
O157       Al159   1.902       .  S
O158        C160   1.221       .  A
O158       Al159   1.845       .  S
Al159       O167   1.852       .  S
Al159       O169   1.995       .  S
Al159       O168   1.745       .  S
C160        O173   1.275       .  A
C160       C1120   1.516       .  S
O161        C171   1.296       .  A
O161       Al163   2.006       .  S
O162        C175   1.267       .  A
O162       Al172   1.877       .  S
Al163       O176   1.952       .  S
Al163       O173   2.056       .  S
Al163       O168   1.798       .  S
O164        C171   1.278       .  A
O164       Al172   1.979       .  S
O165        C174   1.269       .  A
O165       Al172   1.976       .  S
O166       Al172   1.806       .  S
O167        C174   1.244       .  A
O168       Al172   1.745       .  S
O169        C170   1.287       .  A
C170        C997   1.494       .  S
C171       C1024   1.541       .  S
C174       C1033   1.482       .  S
C175        O176   1.277       .  A
C175       C1096   1.460       .  S
O177        C192   1.266       .  A
O177       Al185   1.916       .  S
C178        O188   1.258       .  A
C178        O179   1.272       .  A
C178        C973   1.450       .  S
O179       Al181   1.939       .  S
O180        C182   1.244       .  A
O180       Al181   1.846       .  S
Al181       O189   1.880       .  S
Al181       O191   1.933       .  S
Al181       O190   1.758       .  S
C182        O195   1.287       .  A
C182       C1180   1.522       .  S
O183        C193   1.285       .  A
O183       Al185   1.975       .  S
O184        C197   1.249       .  A
O184       Al194   1.859       .  S
Al185       O198   1.998       .  S
Al185       O195   2.049       .  S
Al185       O190   1.781       .  S
O186        C193   1.281       .  A
O186       Al194   1.997       .  S
O187        C196   1.264       .  A
O187       Al194   1.930       .  S
O188       Al194   1.828       .  S
O189        C196   1.249       .  A
O190       Al194   1.755       .  S
O191        C192   1.270       .  A
C192        C961   1.501       .  S
C193        C988   1.535       .  S
C196       C1084   1.473       .  S
C197        O198   1.281       .  A
C197       C1036   1.474       .  S
O199        C214   1.275       .  A
O199       Al207   1.972       .  S
C200        O210   1.282       .  A
C200        O201   1.295       .  A
C200       C1072   1.450       .  S
O201       Al203   1.979       .  S
O202        C204   1.240       .  A
O202       Al203   1.867       .  S
Al203       O211   1.884       .  S
Al203       O213   1.859       .  S
Al203       O212   1.749       .  S
C204        O217   1.294       .  A
C204       C1276   1.543       .  S
O205        C215   1.267       .  A
O205       Al207   2.007       .  S
O206        C219   1.282       .  A
O206       Al216   1.827       .  S
Al207       O220   2.046       .  S
Al207       O217   2.081       .  S
Al207       O212   1.734       .  S
O208        C215   1.244       .  A
O208       Al216   1.918       .  S
O209        C218   1.243       .  A
O209       Al216   1.891       .  S
O210       Al216   1.833       .  S
O211        C218   1.235       .  A
O212       Al216   1.715       .  S
O213        C214   1.260       .  A
C214        C925   1.473       .  S
C215       C1021   1.538       .  S
C218        C952   1.466       .  S
C219        O220   1.312       .  A
C219        C937   1.481       .  S
O221        C236   1.272       .  A
O221       Al229   1.854       .  S
C222        O232   1.254       .  A
C222        O223   1.270       .  A
C222        C976   1.465       .  S
O223       Al225   1.909       .  S
O224        C226   1.219       .  A
O224       Al225   1.841       .  S
Al225       O233   1.822       .  S
Al225       O235   2.037       .  S
Al225       O234   1.728       .  S
C226        O239   1.265       .  A
C226       C1333   1.524       .  S
O227        C237   1.303       .  A
O227       Al229   2.000       .  S
O228        C241   1.243       .  A
O228       Al238   1.888       .  S
Al229       O242   1.964       .  S
Al229       O239   2.054       .  S
Al229       O234   1.805       .  S
O230        C237   1.301       .  A
O230       Al238   2.046       .  S
O231        C240   1.266       .  A
O231       Al238   1.961       .  S
O232       Al238   1.842       .  S
O233        C240   1.237       .  A
O234       Al238   1.739       .  S
O235        C236   1.306       .  A
C236        C904   1.512       .  S
C237       C1060   1.563       .  S
C240        C916   1.479       .  S
C241        O242   1.268       .  A
C241        C949   1.467       .  S
O243        C258   1.270       .  A
O243       Al251   1.921       .  S
C244        O254   1.268       .  A
C244        O245   1.286       .  A
C244       C1012   1.455       .  S
O245       Al247   1.941       .  S
O246        C248   1.226       .  A
O246       Al247   1.765       .  S
Al247       O255   1.874       .  S
Al247       O257   1.891       .  S
Al247       O256   1.758       .  S
C248        O261   1.282       .  A
C248       C1228   1.523       .  S
O249        C259   1.283       .  A
O249       Al251   2.019       .  S
O250        C263   1.264       .  A
O250       Al260   1.844       .  S
Al251       O264   2.008       .  S
Al251       O261   2.050       .  S
Al251       O256   1.777       .  S
O252        C259   1.262       .  A
O252       Al260   1.944       .  S
O253        C262   1.245       .  A
O253       Al260   1.914       .  S
O254       Al260   1.805       .  S
O255        C262   1.235       .  A
O256       Al260   1.765       .  S
O257        C258   1.271       .  A
C258        C889   1.466       .  S
C259        C985   1.544       .  S
C262        C940   1.491       .  S
C263        O264   1.293       .  A
C263        C913   1.474       .  S
O265        C280   1.296       .  A
O265       Al273   1.980       .  S
C266        O276   1.279       .  A
C266        O267   1.278       .  A
C266        C856   1.460       .  S
O267       Al269   1.866       .  S
O268        C270   1.245       .  A
O268       Al269   1.883       .  S
Al269       O277   1.889       .  S
Al269       O279   1.824       .  S
Al269       O278   1.740       .  S
C270        O283   1.266       .  A
C270        C841   1.519       .  S
O271        C281   1.289       .  A
O271       Al273   2.092       .  S
O272        C285   1.265       .  A
O272       Al282   1.852       .  S
Al273       O286   1.978       .  S
Al273       O283   1.983       .  S
Al273       O278   1.754       .  S
O274        C281   1.235       .  A
O274       Al282   1.882       .  S
O275        C284   1.227       .  A
O275       Al282   1.827       .  S
O276       Al282   1.935       .  S
O277        C284   1.243       .  A
O278       Al282   1.759       .  S
O279        C280   1.276       .  A
C280        C865   1.462       .  S
C281        C829   1.540       .  S
C284        C877   1.452       .  S
C285        O286   1.281       .  A
C285       C1168   1.461       .  S
O287        C302   1.305       .  A
O287       Al295   1.985       .  S
C288        O298   1.295       .  A
C288        O289   1.283       .  A
C288        C805   1.456       .  S
O289       Al291   1.861       .  S
O290        C292   1.240       .  A
O290       Al291   1.867       .  S
Al291       O299   1.879       .  S
Al291       O301   1.851       .  S
Al291       O300   1.723       .  S
C292        O305   1.265       .  A
C292        C793   1.521       .  S
O293        C303   1.293       .  A
O293       Al295   2.063       .  S
O294        C307   1.265       .  A
O294       Al304   1.874       .  S
Al295       O308   1.940       .  S
Al295       O305   2.001       .  S
Al295       O300   1.737       .  S
O296        C303   1.242       .  A
O296       Al304   1.877       .  S
O297        C306   1.237       .  A
O297       Al304   1.897       .  S
O298       Al304   1.977       .  S
O299        C306   1.245       .  A
O300       Al304   1.751       .  S
O301        C302   1.291       .  A
C302        C880   1.459       .  S
C303        C781   1.533       .  S
C306        C817   1.471       .  S
C307        O308   1.269       .  A
C307       C1132   1.453       .  S
O309        C324   1.292       .  A
O309       Al317   1.987       .  S
C310        O320   1.275       .  A
C310        O311   1.276       .  A
C310        C757   1.435       .  S
O311       Al313   1.861       .  S
O312        C314   1.258       .  A
O312       Al313   1.938       .  S
Al313       O321   1.930       .  S
Al313       O323   1.848       .  S
Al313       O322   1.755       .  S
C314        O327   1.255       .  A
C314        C769   1.517       .  S
O315        C325   1.278       .  A
O315       Al317   2.058       .  S
O316        C329   1.261       .  A
O316       Al326   1.838       .  S
Al317       O330   1.968       .  S
Al317       O327   1.928       .  S
Al317       O322   1.769       .  S
O318        C325   1.236       .  A
O318       Al326   1.874       .  S
O319        C328   1.223       .  A
O319       Al326   1.795       .  S
O320       Al326   1.912       .  S
O321        C328   1.252       .  A
O322       Al326   1.772       .  S
O323        C324   1.271       .  A
C324        C820   1.464       .  S
C325        C745   1.533       .  S
C328        C868   1.462       .  S
C329        O330   1.277       .  A
C329       C1108   1.463       .  S
O331        C346   1.300       .  A
O331       Al339   1.984       .  S
C332        O342   1.289       .  A
C332        O333   1.280       .  A
C332        C853   1.455       .  S
O333       Al335   1.848       .  S
O334        C336   1.247       .  A
O334       Al335   1.905       .  S
Al335       O343   1.933       .  S
Al335       O345   1.883       .  S
Al335       O344   1.741       .  S
C336        O349   1.264       .  A
C336        C796   1.523       .  S
O337        C347   1.286       .  A
O337       Al339   2.045       .  S
O338        C351   1.256       .  A
O338       Al348   1.842       .  S
Al339       O352   1.959       .  S
Al339       O349   1.972       .  S
Al339       O344   1.751       .  S
O340        C347   1.242       .  A
O340       Al348   1.874       .  S
O341        C350   1.231       .  A
O341       Al348   1.866       .  S
O342       Al348   1.970       .  S
O343        C350   1.247       .  A
O344       Al348   1.753       .  S
O345        C346   1.293       .  A
C346        C733   1.461       .  S
C347        C712   1.528       .  S
C350        C724   1.470       .  S
C351        O352   1.270       .  A
C351       C1321   1.461       .  S
O353        C368   1.307       .  A
O353       Al361   2.000       .  S
C354        O364   1.295       .  A
C354        O355   1.279       .  A
C354        C808   1.453       .  S
O355       Al357   1.838       .  S
O356        C358   1.238       .  A
O356       Al357   1.863       .  S
Al357       O365   1.878       .  S
Al357       O367   1.845       .  S
Al357       O366   1.712       .  S
C358        O371   1.268       .  A
C358        C772   1.516       .  S
O359        C369   1.294       .  A
O359       Al361   2.093       .  S
O360        C373   1.261       .  A
O360       Al370   1.853       .  S
Al361       O374   1.975       .  S
Al361       O371   2.001       .  S
Al361       O366   1.733       .  S
O362        C369   1.240       .  A
O362       Al370   1.889       .  S
O363        C372   1.236       .  A
O363       Al370   1.872       .  S
O364       Al370   1.977       .  S
O365        C372   1.241       .  A
O366       Al370   1.740       .  S
O367        C368   1.287       .  A
C368        C700   1.456       .  S
C369        C688   1.547       .  S
C372        C736   1.468       .  S
C373        O374   1.277       .  A
C373       C1264   1.475       .  S
O375        C390   1.273       .  A
O375       Al383   1.949       .  S
C376        O386   1.269       .  A
C376        O377   1.283       .  A
C376        C760   1.450       .  S
O377       Al379   1.932       .  S
O378        C380   1.256       .  A
O378       Al379   1.881       .  S
Al379       O387   1.892       .  S
Al379       O389   1.829       .  S
Al379       O388   1.726       .  S
C380        O393   1.273       .  A
C380        C844   1.529       .  S
O381        C391   1.270       .  A
O381       Al383   2.021       .  S
O382        C395   1.278       .  A
O382       Al392   1.865       .  S
Al383       O396   2.008       .  S
Al383       O393   1.990       .  S
Al383       O388   1.764       .  S
O384        C391   1.243       .  A
O384       Al392   1.850       .  S
O385        C394   1.239       .  A
O385       Al392   1.899       .  S
O386       Al392   1.869       .  S
O387        C394   1.239       .  A
O388       Al392   1.803       .  S
O389        C390   1.255       .  A
C390        C721   1.465       .  S
C391        C676   1.500       .  S
C394        C697   1.452       .  S
C395        O396   1.296       .  A
C395       C1213   1.478       .  S
O397        C412   1.277       .  A
O397       Al405   1.957       .  S
C398        O408   1.273       .  A
C398        O399   1.255       .  A
C398        C637   1.463       .  S
O399       Al401   1.826       .  S
O400        C402   1.278       .  A
O400       Al401   1.962       .  S
Al401       O409   1.951       .  S
Al401       O411   1.847       .  S
Al401       O410   1.758       .  S
C402        O415   1.290       .  A
C402        C625   1.547       .  S
O403        C413   1.279       .  A
O403       Al405   2.024       .  S
O404        C417   1.277       .  A
O404       Al414   1.960       .  S
Al405       O418   1.902       .  S
Al405       O415   2.004       .  S
Al405       O410   1.779       .  S
O406        C413   1.236       .  A
O406       Al414   1.855       .  S
O407        C416   1.241       .  A
O407       Al414   1.858       .  S
O408       Al414   1.937       .  S
O409        C416   1.266       .  A
O410       Al414   1.751       .  S
O411        C412   1.264       .  A
C412        C649   1.471       .  S
C413        C784   1.510       .  S
C416        C661   1.470       .  S
C417        O418   1.265       .  A
C417       C1048   1.516       .  S
O419        C434   1.267       .  A
O419       Al427   1.924       .  S
C420        O430   1.259       .  A
C420        O421   1.274       .  A
C420        C601   1.445       .  S
O421       Al423   1.917       .  S
O422        C424   1.256       .  A
O422       Al423   1.879       .  S
Al423       O431   1.883       .  S
Al423       O433   1.849       .  S
Al423       O432   1.753       .  S
C424        O437   1.286       .  A
C424        C592   1.557       .  S
O425        C435   1.278       .  A
O425       Al427   2.022       .  S
O426        C439   1.270       .  A
O426       Al436   1.847       .  S
Al427       O440   2.033       .  S
Al427       O437   2.052       .  S
Al427       O432   1.769       .  S
O428        C435   1.242       .  A
O428       Al436   1.853       .  S
O429        C438   1.247       .  A
O429       Al436   1.891       .  S
O430       Al436   1.856       .  S
O431        C438   1.249       .  A
O432       Al436   1.801       .  S
O433        C434   1.258       .  A
C434        C664   1.461       .  S
C435        C748   1.494       .  S
C438        C616   1.469       .  S
C439        O440   1.295       .  A
C439       C1000   1.495       .  S
O441        C456   1.263       .  A
O441       Al449   1.890       .  S
C442        O452   1.264       .  A
C442        O443   1.278       .  A
C442        C565   1.446       .  S
O443       Al445   1.930       .  S
O444        C446   1.261       .  A
O444       Al445   1.921       .  S
Al445       O453   1.926       .  S
Al445       O455   1.863       .  S
Al445       O454   1.756       .  S
C446        O459   1.275       .  A
C446        C580   1.553       .  S
O447        C457   1.270       .  A
O447       Al449   1.999       .  S
O448        C461   1.270       .  A
O448       Al458   1.870       .  S
Al449       O462   2.004       .  S
Al449       O459   2.003       .  S
Al449       O454   1.783       .  S
O450        C457   1.244       .  A
O450       Al458   1.844       .  S
O451        C460   1.236       .  A
O451       Al458   1.845       .  S
O452       Al458   1.863       .  S
O453        C460   1.253       .  A
O454       Al458   1.799       .  S
O455        C456   1.266       .  A
C456        C613   1.459       .  S
C457        C832   1.486       .  S
C460        C652   1.472       .  S
C461        O462   1.290       .  A
C461        C964   1.493       .  S
O463        C478   1.267       .  A
O463       Al471   1.925       .  S
C464        O474   1.282       .  A
C464        O465   1.278       .  A
C464        C640   1.466       .  S
O465       Al467   1.900       .  S
O466        C468   1.262       .  A
O466       Al467   1.913       .  S
Al467       O475   1.931       .  S
Al467       O477   1.812       .  S
Al467       O476   1.741       .  S
C468        O481   1.282       .  A
C468        C589   1.560       .  S
O469        C479   1.276       .  A
O469       Al471   2.033       .  S
O470        C483   1.287       .  A
O470       Al480   1.884       .  S
Al471       O484   1.998       .  S
Al471       O481   2.022       .  S
Al471       O476   1.767       .  S
O472        C479   1.223       .  A
O472       Al480   1.809       .  S
O473        C482   1.239       .  A
O473       Al480   1.854       .  S
O474       Al480   1.928       .  S
O475        C482   1.253       .  A
O476       Al480   1.765       .  S
O477        C478   1.256       .  A
C478        C541   1.461       .  S
C479        C685   1.496       .  S
C482        C556   1.477       .  S
C483        O484   1.296       .  A
C483        C928   1.479       .  S
O485        C500   1.263       .  A
O485       Al493   1.911       .  S
C486        O496   1.263       .  A
C486        O487   1.275       .  A
C486        C568   1.445       .  S
O487       Al489   1.927       .  S
O488        C490   1.259       .  A
O488       Al489   1.900       .  S
Al489       O497   1.896       .  S
Al489       O499   1.850       .  S
Al489       O498   1.751       .  S
C490        O503   1.283       .  A
C490        C628   1.549       .  S
O491        C501   1.270       .  A
O491       Al493   2.008       .  S
O492        C505   1.268       .  A
O492       Al502   1.855       .  S
Al493       O506   2.040       .  S
Al493       O503   2.029       .  S
Al493       O498   1.765       .  S
O494        C501   1.241       .  A
O494       Al502   1.860       .  S
O495        C504   1.243       .  A
O495       Al502   1.865       .  S
O496       Al502   1.861       .  S
O497        C504   1.252       .  A
O498       Al502   1.800       .  S
O499        C500   1.257       .  A
C500        C553   1.460       .  S
C501        C709   1.491       .  S
C504        C529   1.454       .  S
C505        O506   1.301       .  A
C505        C901   1.510       .  S
O507        C522   1.275       .  A
O507       Al515   1.908       .  S
C508        O518   1.276       .  A
C508        O509   1.281       .  A
C508        C604   1.460       .  S
O509       Al511   1.925       .  S
O510        C512   1.257       .  A
O510       Al511   1.910       .  S
Al511       O519   1.939       .  S
Al511       O521   1.858       .  S
Al511       O520   1.756       .  S
C512        O525   1.278       .  A
C512        C577   1.545       .  S
O513        C523   1.291       .  A
O513       Al515   2.122       .  S
O514        C527   1.276       .  A
O514       Al524   1.873       .  S
Al515       O528   1.992       .  S
Al515       O525   2.011       .  S
Al515       O520   1.778       .  S
O516        C523   1.228       .  A
O516       Al524   1.882       .  S
O517        C526   1.223       .  A
O517       Al524   1.795       .  S
O518       Al524   1.923       .  S
O519        C526   1.252       .  A
O520       Al524   1.757       .  S
O521        C522   1.272       .  A
C522        C532   1.451       .  S
C523        C673   1.549       .  S
C526        C544   1.464       .  S
C527        O528   1.287       .  A
C527        C892   1.468       .  S
C529        C530   1.403       .  A
C529        C534   1.402       .  A
C530        C531   1.391       .  A
C530        H535   1.085       .  S
C531        C532   1.406       .  A
C531        C538   1.442       .  S
C532        C533   1.402       .  A
C533        C534   1.387       .  A
C533        H536   1.086       .  S
C534        C537   1.444       .  S
C537        N539   1.157       .  T
C538        N540   1.156       .  T
C541        C542   1.390       .  A
C541        C546   1.412       .  A
C542        C543   1.395       .  A
C542        H547   1.085       .  S
C543        C544   1.425       .  A
C543        C550   1.445       .  S
C544        C545   1.399       .  A
C545        C546   1.403       .  A
C545        H548   1.084       .  S
C546        C549   1.443       .  S
C549        N551   1.157       .  T
C550        N552   1.157       .  T
C553        C554   1.405       .  A
C553        C558   1.402       .  A
C554        C555   1.395       .  A
C554        H559   1.083       .  S
C555        C556   1.407       .  A
C555        C562   1.443       .  S
C556        C557   1.413       .  A
C557        C558   1.395       .  A
C557        H560   1.085       .  S
C558        C561   1.445       .  S
C561        N563   1.157       .  T
C562        N564   1.157       .  T
C565        C566   1.402       .  A
C565        C570   1.395       .  A
C566        C567   1.384       .  A
C566        H571   1.069       .  S
C567        C568   1.390       .  A
C567        C574   1.443       .  S
C568        C569   1.409       .  A
C569        C570   1.394       .  A
C569        H572   1.078       .  S
C570        C573   1.442       .  S
C573        N575   1.157       .  T
C574        N576   1.157       .  T
C577        C578   1.411       .  A
C577        C582   1.424       .  A
C578        C579   1.419       .  A
C578        H583   1.085       .  S
C579        C580   1.428       .  A
C579        C586   1.443       .  S
C580        C581   1.420       .  A
C581        C582   1.438       .  A
C581        H584   1.083       .  S
C582        C585   1.440       .  S
C585        N587   1.157       .  T
C586        N588   1.157       .  T
C589        C590   1.426       .  A
C589        C594   1.429       .  A
C590        C591   1.446       .  A
C590        H595   1.083       .  S
C591        C592   1.426       .  A
C591        C598   1.440       .  S
C592        C593   1.415       .  A
C593        C594   1.413       .  A
C593        H596   1.085       .  S
C594        C597   1.445       .  S
C597        N599   1.157       .  T
C598        N600   1.157       .  T
C601        C602   1.411       .  A
C601        C606   1.380       .  A
C602        C603   1.401       .  A
C602        H607   1.074       .  S
C603        C604   1.394       .  A
C603        C610   1.440       .  S
C604        C605   1.396       .  A
C605        C606   1.377       .  A
C605        H608   1.043       .  S
C606        C609   1.445       .  S
C609        N611   1.157       .  T
C610        N612   1.157       .  T
C613        C614   1.402       .  A
C613        C618   1.405       .  A
C614        C615   1.398       .  A
C614        H619   1.085       .  S
C615        C616   1.413       .  A
C615        C622   1.444       .  S
C616        C617   1.401       .  A
C617        C618   1.385       .  A
C617        H620   1.075       .  S
C618        C621   1.445       .  S
C621        N623   1.156       .  T
C622        N624   1.157       .  T
C625        C626   1.410       .  A
C625        C630   1.425       .  A
C626        C627   1.412       .  A
C626        H631   1.084       .  S
C627        C628   1.426       .  A
C627        C634   1.443       .  S
C628        C629   1.423       .  A
C629        C630   1.441       .  A
C629        H632   1.084       .  S
C630        C633   1.440       .  S
C633        N635   1.157       .  T
C634        N636   1.157       .  T
C637        C638   1.393       .  A
C637        C642   1.408       .  A
C638        C639   1.392       .  A
C638        H643   1.086       .  S
C639        C640   1.419       .  A
C639        C646   1.434       .  S
C640        C641   1.402       .  A
C641        C642   1.385       .  A
C641        H644   1.086       .  S
C642        C645   1.439       .  S
C645        N647   1.155       .  T
C646        N648   1.157       .  T
C649        C650   1.395       .  A
C649        C654   1.411       .  A
C650        C651   1.397       .  A
C650        H655   1.085       .  S
C651        C652   1.421       .  A
C651        C658   1.445       .  S
C652        C653   1.404       .  A
C653        C654   1.401       .  A
C653        H656   1.083       .  S
C654        C657   1.444       .  S
C657        N659   1.157       .  T
C658        N660   1.157       .  T
C661        C662   1.392       .  A
C661        C666   1.425       .  A
C662        C663   1.393       .  A
C662        H667   1.085       .  S
C663        C664   1.411       .  A
C663        C670   1.436       .  S
C664        C665   1.392       .  A
C665        C666   1.398       .  A
C665        H668   1.085       .  S
C666        C669   1.443       .  S
C669        N671   1.158       .  T
C670        N672   1.155       .  T
C673        C674   1.428       .  A
C673        C678   1.410   1_655  A
C674        C675   1.388   1_655  A
C674        H679   1.076       .  S
C675        C676   1.394       .  A
C675        C682   1.450   1_455  S
C676        C677   1.429       .  A
C677        C678   1.440       .  A
C677        H680   1.080       .  S
C678        C681   1.434   1_455  S
C681        N683   1.155       .  T
C682        N684   1.157       .  T
C685        C686   1.432       .  A
C685        C690   1.398       .  A
C686        C687   1.434       .  A
C686        H691   1.080       .  S
C687        C688   1.412       .  A
C687        C694   1.439       .  S
C688        C689   1.427       .  A
C689        C690   1.394       .  A
C689        H692   1.079       .  S
C690        C693   1.449       .  S
C693        N695   1.157       .  T
C694        N696   1.157       .  T
C697        C698   1.387       .  A
C697        C702   1.408       .  A
C698        C699   1.364       .  A
C698        H703   1.076       .  S
C699        C700   1.414       .  A
C699        C706   1.451       .  S
C700        C701   1.407       .  A
C701        C702   1.411       .  A
C701        H704   1.084       .  S
C702        C705   1.441       .  S
C705        N707   1.157       .  T
C706        N708   1.158       .  T
C709        C710   1.421       .  A
C709        C714   1.397   1_545  A
C710        C711   1.424   1_545  A
C710        H715   1.078       .  S
C711        C712   1.411       .  A
C711        C718   1.441   1_565  S
C712        C713   1.424       .  A
C713        C714   1.395       .  A
C713        H716   1.080       .  S
C714        C717   1.446       .  S
C717        N719   1.157       .  T
C718        N720   1.157       .  T
C721        C722   1.409       .  A
C721        C726   1.409       .  A
C722        C723   1.403       .  A
C722        H727   1.084       .  S
C723        C724   1.407       .  A
C723        C730   1.443       .  S
C724        C725   1.402       .  A
C725        C726   1.400       .  A
C725        H728   1.084       .  S
C726        C729   1.444       .  S
C729        N731   1.157       .  T
C730        N732   1.157       .  T
C733        C734   1.399       .  A
C733        C738   1.401       .  A
C734        C735   1.380       .  A
C734        H739   1.074       .  S
C735        C736   1.409       .  A
C735        C742   1.448       .  S
C736        C737   1.410       .  A
C737        C738   1.402       .  A
C737        H740   1.084       .  S
C738        C741   1.439       .  S
C741        N743   1.157       .  T
C742        N744   1.158       .  T
C745        C746   1.422       .  A
C745        C750   1.408       .  A
C746        C747   1.398       .  A
C746        H751   1.079       .  S
C747        C748   1.399   1_455  A
C747        C754   1.446       .  S
C748        C749   1.425       .  A
C749        C750   1.429   1_655  A
C749        H752   1.081       .  S
C750        C753   1.440       .  S
C753        N755   1.157       .  T
C754        N756   1.157       .  T
C757        C758   1.407       .  A
C757        C762   1.398       .  A
C758        C759   1.396       .  A
C758        H763   1.083       .  S
C759        C760   1.402       .  A
C759        C766   1.443       .  S
C760        C761   1.396       .  A
C761        C762   1.378       .  A
C761        H764   1.070       .  S
C762        C765   1.445       .  S
C765        N767   1.157       .  T
C766        N768   1.157       .  T
C769        C770   1.418       .  A
C769        C774   1.406       .  A
C770        C771   1.426       .  A
C770        H775   1.084       .  S
C771        C772   1.414       .  A
C771        C778   1.440       .  S
C772        C773   1.412       .  A
C773        C774   1.411       .  A
C773        H776   1.081       .  S
C774        C777   1.437       .  S
C777        N779   1.155       .  T
C778        N780   1.157       .  T
C781        C782   1.428       .  A
C781        C786   1.407       .  A
C782        C783   1.401       .  A
C782        H787   1.079       .  S
C783        C784   1.400       .  A
C783        C790   1.445       .  S
C784        C785   1.423       .  A
C785        C786   1.423       .  A
C785        H788   1.076       .  S
C786        C789   1.440       .  S
C789        N791   1.157       .  T
C790        N792   1.157       .  T
C793        C794   1.408       .  A
C793        C798   1.417       .  A
C794        C795   1.405       .  A
C794        H799   1.085       .  S
C795        C796   1.407       .  A
C795        C802   1.425       .  S
C796        C797   1.420       .  A
C797        C798   1.431       .  A
C797        H800   1.084       .  S
C798        C801   1.439       .  S
C801        N803   1.157       .  T
C802        N804   1.150       .  T
C805        C806   1.394       .  A
C805        C810   1.420       .  A
C806        C807   1.393       .  A
C806        H811   1.085       .  S
C807        C808   1.413       .  A
C807        C814   1.441       .  S
C808        C809   1.382       .  A
C809        C810   1.385       .  A
C809        H812   1.086       .  S
C810        C813   1.437       .  S
C813        N815   1.156       .  T
C814        N816   1.157       .  T
C817        C818   1.392       .  A
C817        C822   1.406       .  A
C818        C819   1.382       .  A
C818        H823   1.088       .  S
C819        C820   1.419       .  A
C819        C826   1.441       .  S
C820        C821   1.408       .  A
C821        C822   1.408       .  A
C821        H824   1.082       .  S
C822        C825   1.438       .  S
C825        N827   1.156       .  T
C826        N828   1.157       .  T
C829        C830   1.428       .  A
C829        C834   1.411   1_565  A
C830        C831   1.388       .  A
C830        H835   1.073       .  S
C831        C832   1.391   1_565  A
C831        C838   1.450       .  S
C832        C833   1.426       .  A
C833        C834   1.432       .  A
C833        H836   1.079       .  S
C834        C837   1.439       .  S
C837        N839   1.157       .  T
C838        N840   1.157       .  T
C841        C842   1.417       .  A
C841        C846   1.416       .  A
C842        C843   1.432       .  A
C842        H847   1.084       .  S
C843        C844   1.420       .  A
C843        C850   1.440       .  S
C844        C845   1.412       .  A
C845        C846   1.403       .  A
C845        H848   1.085       .  S
C846        C849   1.445       .  S
C849        N851   1.157       .  T
C850        N852   1.157       .  T
C853        C854   1.411       .  A
C853        C858   1.392       .  A
C854        C855   1.390       .  A
C854        H859   1.074       .  S
C855        C856   1.395       .  A
C855        C862   1.441       .  S
C856        C857   1.407       .  A
C857        C858   1.389       .  A
C857        H860   1.072       .  S
C858        C861   1.443       .  S
C861        N863   1.157       .  T
C862        N864   1.157       .  T
C865        C866   1.394       .  A
C865        C870   1.416       .  A
C866        C867   1.396       .  A
C866        H871   1.085       .  S
C867        C868   1.419       .  A
C867        C874   1.445       .  S
C868        C869   1.396       .  A
C869        C870   1.399       .  A
C869        H872   1.084       .  S
C870        C873   1.444       .  S
C873        N875   1.157       .  T
C874        N876   1.157       .  T
C877        C878   1.394       .  A
C877        C882   1.411       .  A
C878        C879   1.391       .  A
C878        H883   1.084       .  S
C879        C880   1.411       .  A
C879        C886   1.442       .  S
C880        C881   1.398       .  A
C881        C882   1.396       .  A
C881        H884   1.085       .  S
C882        C885   1.443       .  S
C885        N887   1.157       .  T
C886        N888   1.156       .  T
C889        C890   1.403       .  A
C889        C894   1.404       .  A
C890        C891   1.401   1_554  A
C890        H895   1.085       .  S
C891        C892   1.407       .  A
C891        C898   1.439       .  S
C892        C893   1.402       .  A
C893        C894   1.397   1_556  A
C893        H896   1.085       .  S
C894        C897   1.441       .  S
C897        N899   1.157   1_655  T
C898        N900   1.156       .  T
C901        C902   1.420       .  A
C901        C906   1.408       .  A
C902        C903   1.411   1_556  A
C902        H907   1.084       .  S
C903        C904   1.409       .  A
C903        C910   1.443       .  S
C904        C905   1.422       .  A
C905        C906   1.409   1_554  A
C905        H908   1.084       .  S
C906        C909   1.444       .  S
C909        N911   1.157       .  T
C910        N912   1.157       .  T
C913        C914   1.397       .  A
C913        C918   1.415       .  A
C914        C915   1.400       .  A
C914        H919   1.085       .  S
C915        C916   1.422       .  A
C915        C922   1.446       .  S
C916        C917   1.402       .  A
C917        C918   1.408       .  A
C917        H920   1.084       .  S
C918        C921   1.439       .  S
C921        N923   1.155       .  T
C922        N924   1.157       .  T
C925        C926   1.403       .  A
C925        C930   1.410       .  A
C926        C927   1.408   1_554  A
C926        H931   1.085       .  S
C927        C928   1.414       .  A
C927        C934   1.441       .  S
C928        C929   1.401       .  A
C929        C930   1.394   1_556  A
C929        H932   1.085       .  S
C930        C933   1.445       .  S
C933        N935   1.157       .  T
C934        N936   1.157       .  T
C937        C938   1.416       .  A
C937        C942   1.413       .  A
C938        C939   1.426       .  A
C938        H943   1.083       .  S
C939        C940   1.419       .  A
C939        C946   1.437       .  S
C940        C941   1.390       .  A
C941        C942   1.379       .  A
C941        H944   1.081       .  S
C942        C945   1.441       .  S
C945        N947   1.157       .  T
C946        N948   1.156       .  T
C949        C950   1.388       .  A
C949        C954   1.412       .  A
C950        C951   1.384       .  A
C950        H955   1.064       .  S
C951        C952   1.406       .  A
C951        C958   1.445       .  S
C952        C953   1.407       .  A
C953        C954   1.406       .  A
C953        H956   1.084       .  S
C954        C957   1.443       .  S
C957        N959   1.157       .  T
C958        N960   1.157       .  T
C961        C962   1.406       .  A
C961        C966   1.422       .  A
C962        C963   1.402       .  A
C962        H967   1.085       .  S
C963        C964   1.416       .  A
C963        C970   1.445       .  S
C964        C965   1.403       .  A
C965        C966   1.410       .  A
C965        H968   1.085       .  S
C966        C969   1.443       .  S
C969        N971   1.157       .  T
C970        N972   1.157       .  T
C973        C974   1.393       .  A
C973        C978   1.402       .  A
C974        C975   1.386       .  A
C974        H979   1.082       .  S
C975        C976   1.410       .  A
C975        C982   1.437       .  S
C976        C977   1.410       .  A
C977        C978   1.390       .  A
C977        H980   1.084       .  S
C978        C981   1.442       .  S
C981        N983   1.157       .  T
C982        N984   1.154       .  T
C985        C986   1.416       .  A
C985        C990   1.429       .  A
C986        C987   1.435       .  A
C986        H991   1.084       .  S
C987        C988   1.423       .  A
C987        C994   1.440       .  S
C988        C989   1.400       .  A
C989        C990   1.418       .  A
C989        H992   1.077       .  S
C990        C993   1.443       .  S
C993        N995   1.157       .  T
C994        N996   1.157       .  T
C997        C998   1.416       .  A
C997       C1002   1.410       .  A
C998        C999   1.422       .  A
C998       H1003   1.082       .  S
C999       C1000   1.413       .  A
C999       C1006   1.441       .  S
C1000      C1001   1.397       .  A
C1001      C1002   1.389       .  A
C1001      H1004   1.081       .  S
C1002      C1005   1.437       .  S
C1005      N1007   1.155       .  T
C1006      N1008   1.157       .  T
C1009      C1010   1.402       .  A
C1009      C1014   1.397       .  A
C1010      C1011   1.394       .  A
C1010      H1015   1.085       .  S
C1011      C1012   1.405       .  A
C1011      C1018   1.442       .  S
C1012      C1013   1.406       .  A
C1013      C1014   1.376       .  A
C1013      H1016   1.083       .  S
C1014      C1017   1.446       .  S
C1017      N1019   1.156       .  T
C1018      N1020   1.157       .  T
C1021      C1022   1.420       .  A
C1021      C1026   1.407       .  A
C1022      C1023   1.427       .  A
C1022      H1027   1.083       .  S
C1023      C1024   1.411       .  A
C1023      C1030   1.438       .  S
C1024      C1025   1.421       .  A
C1025      C1026   1.426       .  A
C1025      H1028   1.074       .  S
C1026      C1029   1.438       .  S
C1029      N1031   1.156       .  T
C1030      N1032   1.156       .  T
C1033      C1034   1.404       .  A
C1033      C1038   1.418       .  A
C1034      C1035   1.405       .  A
C1034      H1039   1.081       .  S
C1035      C1036   1.415       .  A
C1035      C1042   1.443       .  S
C1036      C1037   1.395       .  A
C1037      C1038   1.399       .  A
C1037      H1040   1.081       .  S
C1038      C1041   1.441       .  S
C1041      N1043   1.157       .  T
C1042      N1044   1.157       .  T
C1045      C1046   1.413       .  A
C1045      C1050   1.417       .  A
C1046      C1047   1.412       .  A
C1046      H1051   1.084       .  S
C1047      C1048   1.418       .  A
C1047      C1054   1.443       .  S
C1048      C1049   1.414       .  A
C1049      C1050   1.413       .  A
C1049      H1052   1.084       .  S
C1050      C1053   1.443       .  S
C1053      N1055   1.157       .  T
C1054      N1056   1.157       .  T
C1057      C1058   1.410       .  A
C1057      C1062   1.422       .  A
C1058      C1059   1.433       .  A
C1058      H1063   1.082       .  S
C1059      C1060   1.432       .  A
C1059      C1066   1.438       .  S
C1060      C1061   1.408       .  A
C1061      C1062   1.430       .  A
C1061      H1064   1.076       .  S
C1062      C1065   1.442       .  S
C1065      N1067   1.157       .  T
C1066      N1068   1.158       .  T
C1069      C1070   1.410       .  A
C1069      C1074   1.404       .  A
C1070      C1071   1.392       .  A
C1070      H1075   1.081       .  S
C1071      C1072   1.390       .  A
C1071      C1078   1.441       .  S
C1072      C1073   1.409       .  A
C1073      C1074   1.396       .  A
C1073      H1076   1.083       .  S
C1074      C1077   1.441       .  S
C1077      N1079   1.157       .  T
C1078      N1080   1.157       .  T
C1081      C1082   1.411       .  A
C1081      C1086   1.402       .  A
C1082      C1083   1.393       .  A
C1082      H1087   1.086       .  S
C1083      C1084   1.404       .  A
C1083      C1090   1.445       .  S
C1084      C1085   1.413       .  A
C1085      C1086   1.404       .  A
C1085      H1088   1.085       .  S
C1086      C1089   1.442       .  S
C1089      N1091   1.157       .  T
C1090      N1092   1.157       .  T
C1093      C1094   1.410       .  A
C1093      C1098   1.412       .  A
C1094      C1095   1.404       .  A
C1094      H1099   1.084       .  S
C1095      C1096   1.399       .  A
C1095      C1102   1.436       .  S
C1096      C1097   1.390       .  A
C1097      C1098   1.396       .  A
C1097      H1100   1.076       .  S
C1098      C1101   1.442       .  S
C1101      N1103   1.157       .  T
C1102      N1104   1.155       .  T
C1105      C1106   1.397       .  A
C1105      C1110   1.410       .  A
C1106      C1107   1.388       .  A
C1106      H1111   1.086       .  S
C1107      C1108   1.414       .  A
C1107      C1114   1.447       .  S
C1108      C1109   1.402       .  A
C1109      C1110   1.402       .  A
C1109      H1112   1.085       .  S
C1110      C1113   1.443       .  S
C1113      N1115   1.157       .  T
C1114      N1116   1.157       .  T
C1117      C1118   1.428       .  A
C1117      C1122   1.409       .  A
C1118      C1119   1.406       .  A
C1118      H1123   1.083       .  S
C1119      C1120   1.401   1_455  A
C1119      C1126   1.442       .  S
C1120      C1121   1.427       .  A
C1121      C1122   1.421   1_655  A
C1121      H1124   1.085       .  S
C1122      C1125   1.441       .  S
C1125      N1127   1.157       .  T
C1126      N1128   1.157       .  T
C1129      C1130   1.396       .  A
C1129      C1134   1.405       .  A
C1130      C1131   1.394       .  A
C1130      H1135   1.084       .  S
C1131      C1132   1.406       .  A
C1131      C1138   1.440       .  S
C1132      C1133   1.399       .  A
C1133      C1134   1.393       .  A
C1133      H1136   1.085       .  S
C1134      C1137   1.443       .  S
C1137      N1139   1.157       .  T
C1138      N1140   1.156       .  T
C1141      C1142   1.393       .  A
C1141      C1146   1.419       .  A
C1142      C1143   1.407       .  A
C1142      H1147   1.088       .  S
C1143      C1144   1.448       .  A
C1143      C1150   1.447       .  S
C1144      C1145   1.413       .  A
C1145      C1146   1.431       .  A
C1145      H1148   1.076       .  S
C1146      C1149   1.435       .  S
C1149      N1151   1.156       .  T
C1150      N1152   1.157       .  T
C1153      C1154   1.392       .  A
C1153      C1158   1.409       .  A
C1154      C1155   1.378       .  A
C1154      H1159   1.088       .  S
C1155      C1156   1.416       .  A
C1155      C1162   1.439       .  S
C1156      C1157   1.409       .  A
C1157      C1158   1.413       .  A
C1157      H1160   1.084       .  S
C1158      C1161   1.437       .  S
C1161      N1163   1.156       .  T
C1162      N1164   1.154       .  T
C1165      C1166   1.405       .  A
C1165      C1170   1.407       .  A
C1166      C1167   1.401       .  A
C1166      H1171   1.085       .  S
C1167      C1168   1.407       .  A
C1167      C1174   1.443       .  S
C1168      C1169   1.403       .  A
C1169      C1170   1.392       .  A
C1169      H1172   1.086       .  S
C1170      C1173   1.446       .  S
C1173      N1175   1.157       .  T
C1174      N1176   1.157       .  T
C1177      C1178   1.422       .  A
C1177      C1182   1.404   1_565  A
C1178      C1179   1.414   1_565  A
C1178      H1183   1.077       .  S
C1179      C1180   1.405       .  A
C1179      C1186   1.442       .  S
C1180      C1181   1.427       .  A
C1181      C1182   1.414       .  A
C1181      H1184   1.083       .  S
C1182      C1185   1.443       .  S
C1185      N1187   1.157       .  T
C1186      N1188   1.157       .  T
C1189      C1190   1.401       .  A
C1189      C1194   1.407       .  A
C1190      C1191   1.405       .  A
C1190      H1195   1.085       .  S
C1191      C1192   1.417       .  A
C1191      C1198   1.443       .  S
C1192      C1193   1.394       .  A
C1193      C1194   1.396       .  A
C1193      H1196   1.076       .  S
C1194      C1197   1.439       .  S
C1197      N1199   1.154       .  T
C1198      N1200   1.157       .  T
C1201      C1202   1.409       .  A
C1201      C1206   1.412       .  A
C1202      C1203   1.397       .  A
C1202      H1207   1.085       .  S
C1203      C1204   1.404       .  A
C1203      C1210   1.444       .  S
C1204      C1205   1.403       .  A
C1205      C1206   1.395       .  A
C1205      H1208   1.085       .  S
C1206      C1209   1.445       .  S
C1209      N1211   1.157       .  T
C1210      N1212   1.157       .  T
C1213      C1214   1.408       .  A
C1213      C1218   1.412       .  A
C1214      C1215   1.411   1_556  A
C1214      H1219   1.084       .  S
C1215      C1216   1.409       .  A
C1215      C1222   1.442       .  S
C1216      C1217   1.400       .  A
C1217      C1218   1.394   1_554  A
C1217      H1220   1.086       .  S
C1218      C1221   1.446       .  S
C1221      N1223   1.157       .  T
C1222      N1224   1.157       .  T
C1225      C1226   1.391       .  A
C1225      C1230   1.424       .  A
C1226      C1227   1.402   1_455  A
C1226      H1231   1.086       .  S
C1227      C1228   1.442       .  A
C1227      C1234   1.447       .  S
C1228      C1229   1.407       .  A
C1229      C1230   1.425   1_655  A
C1229      H1232   1.084       .  S
C1230      C1233   1.436       .  S
C1233      N1235   1.155       .  T
C1234      N1236   1.157       .  T
C1237      C1238   1.412       .  A
C1237      C1242   1.390       .  A
C1238      C1239   1.399       .  A
C1238      H1243   1.076       .  S
C1239      C1240   1.394       .  A
C1239      C1246   1.442       .  S
C1240      C1241   1.402       .  A
C1241      C1242   1.384       .  A
C1241      H1244   1.064       .  S
C1242      C1245   1.444       .  S
C1245      N1247   1.157       .  T
C1246      N1248   1.157       .  T
C1249      C1250   1.414       .  A
C1249      C1254   1.420       .  A
C1250      C1251   1.398       .  A
C1250      H1255   1.084       .  S
C1251      C1252   1.413       .  A
C1251      C1258   1.444       .  S
C1252      C1253   1.417       .  A
C1253      C1254   1.433       .  A
C1253      H1256   1.083       .  S
C1254      C1257   1.440       .  S
C1257      N1259   1.157       .  T
C1258      N1260   1.157       .  T
C1261      C1262   1.400       .  A
C1261      C1266   1.408       .  A
C1262      C1263   1.389   1_554  A
C1262      H1267   1.086       .  S
C1263      C1264   1.413       .  A
C1263      C1270   1.447       .  S
C1264      C1265   1.407       .  A
C1265      C1266   1.409   1_556  A
C1265      H1268   1.084       .  S
C1266      C1269   1.440       .  S
C1269      N1271   1.157       .  T
C1270      N1272   1.157       .  T
C1273      C1274   1.426       .  A
C1273      C1278   1.403       .  A
C1274      C1275   1.432       .  A
C1274      H1279   1.073       .  S
C1275      C1276   1.407       .  A
C1275      C1282   1.438       .  S
C1276      C1277   1.427       .  A
C1277      C1278   1.408       .  A
C1277      H1280   1.081       .  S
C1278      C1281   1.443       .  S
C1281      N1283   1.157       .  T
C1282      N1284   1.156       .  T
C1285      C1286   1.401       .  A
C1285      C1290   1.428       .  A
C1286      C1287   1.407       .  A
C1286      H1291   1.083       .  S
C1287      C1288   1.432       .  A
C1287      C1294   1.442       .  S
C1288      C1289   1.413       .  A
C1289      C1290   1.428       .  A
C1289      H1292   1.083       .  S
C1290      C1293   1.442       .  S
C1293      N1295   1.157       .  T
C1294      N1296   1.156       .  T
C1297      C1298   1.394       .  A
C1297      C1302   1.423       .  A
C1298      C1299   1.392       .  A
C1298      H1303   1.080       .  S
C1299      C1300   1.412       .  A
C1299      C1306   1.440       .  S
C1300      C1301   1.379       .  A
C1301      C1302   1.387       .  A
C1301      H1304   1.088       .  S
C1302      C1305   1.431       .  S
C1305      N1307   1.153       .  T
C1306      N1308   1.158       .  T
C1309      C1310   1.398       .  A
C1309      C1314   1.410       .  A
C1310      C1311   1.397       .  A
C1310      H1315   1.085       .  S
C1311      C1312   1.415       .  A
C1311      C1318   1.442       .  S
C1312      C1313   1.404       .  A
C1313      C1314   1.401       .  A
C1313      H1316   1.085       .  S
C1314      C1317   1.444       .  S
C1317      N1319   1.157       .  T
C1318      N1320   1.156       .  T
C1321      C1322   1.406       .  A
C1321      C1326   1.410       .  A
C1322      C1323   1.405   1_556  A
C1322      H1327   1.085       .  S
C1323      C1324   1.407       .  A
C1323      C1330   1.443       .  S
C1324      C1325   1.391       .  A
C1325      C1326   1.387   1_554  A
C1325      H1328   1.076       .  S
C1326      C1329   1.446       .  S
C1329      N1331   1.157       .  T
C1330      N1332   1.157       .  T
C1333      C1334   1.399       .  A
C1333      C1338   1.423       .  A
C1334      C1335   1.414   1_545  A
C1334      H1339   1.084       .  S
C1335      C1336   1.441       .  A
C1335      C1342   1.447       .  S
C1336      C1337   1.399       .  A
C1337      C1338   1.417   1_565  A
C1337      H1340   1.073       .  S
C1338      C1341   1.434       .  S
C1341      N1343   1.154       .  T
C1342      N1344   1.158       .  T
C1345      C1346   1.418       .  A
C1345      C1350   1.414       .  A
C1346      C1347   1.423       .  A
C1346      H1351   1.084       .  S
C1347      C1348   1.411       .  A
C1347      C1354   1.434       .  S
C1348      C1349   1.414       .  A
C1349      C1350   1.423       .  A
C1349      H1352   1.075       .  S
C1350      C1353   1.437       .  S
C1353      N1355   1.157       .  T
C1354      N1356   1.155       .  T
C1357      C1358   1.386       .  A
C1357      C1362   1.418       .  A
C1358      C1359   1.390       .  A
C1358      H1363   1.086       .  S
C1359      C1360   1.418       .  A
C1359      C1366   1.436       .  S
C1360      C1361   1.387       .  A
C1361      C1362   1.385       .  A
C1361      H1364   1.083       .  S
C1362      C1365   1.439       .  S
C1365      N1367   1.157       .  T
C1366      N1368   1.156       .  T
C1369      C1370   1.402       .  A
C1369      C1374   1.409       .  A
C1370      C1371   1.398       .  A
C1370      H1375   1.086       .  S
C1371      C1372   1.407       .  A
C1371      C1378   1.438       .  S
C1372      C1373   1.404       .  A
C1373      C1374   1.401       .  A
C1373      H1376   1.085       .  S
C1374      C1377   1.436       .  S
C1377      N1379   1.155       .  T
C1378      N1380   1.155       .  T
C1381      C1382   1.400       .  A
C1381      C1386   1.416       .  A
C1382      C1383   1.398       .  A
C1382      H1387   1.085       .  S
C1383      C1384   1.407       .  A
C1383      C1390   1.442       .  S
C1384      C1385   1.388       .  A
C1385      C1386   1.387       .  A
C1385      H1388   1.081       .  S
C1386      C1389   1.439       .  S
C1389      N1391   1.155       .  T
C1390      N1392   1.156       .  T
