geometry optimzed in LAMMPS
_audit_creation_date              2020-12-01 
_audit_creation_method            'lammps2cif' 
_symmetry_space_group_name_H-M    'P1' 
_symmetry_Int_Tables_number       1 
_symmetry_cell_setting            triclinic 
loop_ 
_symmetry_equiv_pos_as_xyz 
  x,y,z 
_cell_length_a                    34.30050965 
_cell_length_b                    34.174357550467306 
_cell_length_c                    66.35603122217856 
_cell_angle_alpha                 89.78796210404317 
_cell_angle_beta                  89.93558826995877 
_cell_angle_gamma                 119.5184467838841 
loop_ 
_atom_site_label 
_atom_site_type_symbol 
_atom_site_fract_x 
_atom_site_fract_y 
_atom_site_fract_z 
_atom_site_charge 
O1          O  0.93883396  0.37943545  0.73960487    -0.88700
C2          C  0.97029092  0.30704512  0.70163723     0.87300
Mg3        Mg  0.88828747  0.39534367  0.73342417     1.58100
O4          O  0.04288454  0.42325458  0.70203084    -0.88500
O5          O  0.01010585  0.41629643  0.74696874    -0.75800
C6          C  0.91919737  0.45866576  0.63511501     0.92300
O7          O  0.87055007  0.29912286  0.71089580    -0.75600
O8          O  0.88604210  0.44206389  0.64748088    -0.83100
Mg9        Mg  0.92007526  0.31024978  0.73642872     1.58000
C10         C  0.09471406  0.48845408  0.64722308     0.92300
O11         O  0.96418929  0.31354735  0.76280954    -0.81400
H12         H  0.08645544  0.47967893  0.71614339    -0.06700
C13         C  0.95319609  0.37377638  0.65755923     0.87200
O14         O  0.93978505  0.46399681  0.72028376    -0.75900
O15         O  0.97369627  0.33225811  0.71566937    -0.88600
O16         O  0.09583292  0.46148349  0.66020541    -0.81500
C17         C  0.10266925  0.36518746  0.70100360     0.92400
C18         C  0.00398454  0.32172699  0.76628733     0.92200
Mg19       Mg  0.00226204  0.47333092  0.66730896     1.58000
O20         O  0.95803236  0.46635690  0.64040344    -0.81400
O21         O  0.05109462  0.48880953  0.69384109    -0.75600
O22         O  0.06560841  0.34448398  0.70998400    -0.81500
O23         O  0.86298865  0.28803095  0.75833498    -0.83200
O24         O  0.84103833  0.43658230  0.69587364    -0.81500
C25         C  0.06141711  0.46434640  0.70451383     0.86700
O26         O  0.94715480  0.45510531  0.68800712    -0.88600
O27         O  0.98734053  0.40414807  0.66557445    -0.88700
O28         O  0.91431966  0.36916214  0.66055814    -0.75800
Mg29       Mg  0.03771505  0.38134619  0.72695336     1.58000
O30         O  0.10541892  0.38691478  0.68493800    -0.83200
H31         H  0.96335077  0.42657455  0.76100260    -0.06900
O32         O  0.87668100  0.36477238  0.70429428    -0.88400
H33         H  0.83212388  0.30861797  0.69038393    -0.06700
H34         H  0.97844448  0.51527561  0.70125270    -0.06900
C35         C  0.85835817  0.32374515  0.70152115     0.86700
C36         C  0.97007096  0.40760830  0.74987353     0.87200
C37         C  0.95556833  0.47962891  0.70290845     0.87300
H38         H  0.95636980  0.35015213  0.64785020    -0.06900
O39         O  0.99254185  0.32234411  0.68537465    -0.75900
Mg40       Mg  0.88121796  0.40451430  0.67807990     1.58000
H41         H  0.94801577  0.27125438  0.70323546    -0.06900
C42         C  0.83192582  0.29796748  0.75943150     0.92300
O43         O  0.83799418  0.41468613  0.72784400    -0.83100
C44         C  0.82643705  0.43267752  0.71417106     0.92300
O45         O  0.03470946  0.33983562  0.75321479    -0.83100
Mg46       Mg  0.04359947  0.39391008  0.67397915     1.58200
O47         O  0.83316888  0.33061524  0.74950158    -0.81500
O48         O  0.06076345  0.49391013  0.64530087    -0.83100
O49         O  0.95702748  0.59114751  0.40985357    -0.88700
C50         C  0.99209651  0.69584459  0.44718724     0.87300
Mg51       Mg  0.90240863  0.52695115  0.41578833     1.58100
O52         O  0.05487743  0.64061220  0.44846198    -0.88500
O53         O  0.02806435  0.61960617  0.40290648    -0.75800
C54         C  0.91461258  0.49143504  0.51557580     0.92300
O55         O  0.89095561  0.61038171  0.43694205    -0.75600
O56         O  0.88461464  0.47397143  0.50181427    -0.83100
Mg57       Mg  0.94339620  0.64556625  0.41192173     1.58000
C58         C  0.09662344  0.62536458  0.50506869     0.92300
O59         O  0.99142843  0.68492590  0.38583517    -0.81400
H60         H  0.09510783  0.62069102  0.43569993    -0.06700
C61         C  0.96227858  0.60897605  0.49150062     0.87200
O62         O  0.94867741  0.50395592  0.43040016    -0.75900
O63         O  0.99494009  0.67312363  0.43336219    -0.88600
O64         O  0.10279464  0.64801137  0.48904708    -0.81500
C65         C  0.12331851  0.75782812  0.45052589     0.92400
C66         C  0.03259075  0.71382155  0.38311615     0.92200
Mg67       Mg  0.00458507  0.55189120  0.48478225     1.58000
O68         O  0.95496439  0.52072029  0.51125390    -0.81400
O69         O  0.05656841  0.58038883  0.45862737    -0.75600
O70         O  0.08766989  0.74466940  0.44078558    -0.81500
O71         O  0.88809663  0.61479167  0.38946725    -0.83200
O72         O  0.84276665  0.43837503  0.45292414    -0.81500
C73         C  0.06997728  0.61446153  0.44702182     0.86700
O74         O  0.95169107  0.51699870  0.46297662    -0.88600
O75         O  0.99514135  0.60919146  0.48362655    -0.88700
O76         O  0.92243034  0.57690397  0.48863803    -0.75800
Mg77       Mg  0.05764109  0.68097671  0.42331067     1.58000
O78         O  0.12277729  0.73703267  0.46654040    -0.83200
H79         H  0.97903691  0.56522632  0.38862585    -0.06900
O80         O  0.89013325  0.54743609  0.44440296    -0.88400
H81         H  0.84843046  0.56503338  0.45735204    -0.06700
H82         H  0.98175451  0.48577404  0.45033698    -0.06900
C83         C  0.87507069  0.57342427  0.44655986     0.86700
C84         C  0.98733034  0.59112505  0.39977470     0.87200
C85         C  0.96096438  0.50106216  0.44818196     0.87300
H86         H  0.96746265  0.63670395  0.50103834    -0.06900
O87         O  0.01167503  0.70004523  0.46399039    -0.75900
Mg88       Mg  0.88692111  0.50914281  0.47093344     1.58000
H89         H  0.97257797  0.71249043  0.44494152    -0.06900
C90         C  0.85451537  0.57550041  0.38857630     0.92300
O91         O  0.84772735  0.45960430  0.42081368    -0.83100
C92         C  0.83058801  0.42967391  0.43429482     0.92300
O93         O  0.06164152  0.72225950  0.39664309    -0.83100
Mg94       Mg  0.05636978  0.67192622  0.47612557     1.58200
O95         O  0.85196794  0.54274337  0.39890328    -0.81500
O96         O  0.06014253  0.58903920  0.50825435    -0.83100
O97         O  0.66548389  0.10875780  0.07939696    -0.88700
C98         C  0.72241212  0.06685590  0.12155433     0.87300
Mg99       Mg  0.65187216  0.16173934  0.08431981     1.58100
O100        O  0.60708372  0.00570279  0.11367112    -0.88500
O101        O  0.62991402  0.03933344  0.06918684    -0.75800
C102        C  0.57103103  0.13158532  0.17935139     0.92300
O103        O  0.74012501  0.17124965  0.11127368    -0.75600
O104        O  0.59174031  0.16514104  0.16736170    -0.83100
Mg105      Mg  0.73207704  0.12257071  0.08574997     1.58000
C106        C  0.53415987  0.95468760  0.16604797     0.92300
O107        O  0.73115109  0.07778335  0.05930258    -0.81400
H108        H  0.55355715  0.96866339  0.09639205    -0.06700
C109        C  0.65044013  0.08853869  0.16058214     0.87200
O110        O  0.57977007  0.11266980  0.09417371    -0.75900
O111        O  0.70278347  0.06723700  0.10595496    -0.88600
O112        O  0.55051660  0.95116811  0.14954221    -0.81500
C113        C  0.65233813  0.93387498  0.12000408     0.92400
C114        C  0.72204673  0.03713012  0.05669744     0.92200
Mg115      Mg  0.55441937  0.04776241  0.14704170     1.58000
O116        O  0.56040075  0.09173495  0.17406405    -0.81400
O117        O  0.54213377  0.00135513  0.11927640    -0.75600
O118        O  0.67979695  0.97144580  0.11261458    -0.81500
O119        O  0.76172960  0.18198488  0.06471350    -0.83200
O120        O  0.60931183  0.21226561  0.11959805    -0.81500
C121        C  0.56731468  0.99102267  0.10910700     0.86700
O122        O  0.57924797  0.10448750  0.12706342    -0.88600
O123        O  0.62091874  0.05769374  0.15057352    -0.88700
O124        O  0.65962482  0.12926998  0.15827702    -0.75800
Mg125      Mg  0.65392953  0.00633932  0.09237747     1.58000
O126        O  0.62478869  0.93182540  0.13330188    -0.83200
H127        H  0.62720216  0.09035435  0.05468976    -0.06900
O128        O  0.67553820  0.16929234  0.11460949    -0.88400
H129        H  0.72927841  0.21038077  0.13085203    -0.06700
H130        H  0.52322296  0.07664724  0.11067566    -0.06900
C131        C  0.71540874  0.18505537  0.11924178     0.86700
C132        C  0.64075580  0.08031618  0.06711015     0.87200
C133        C  0.55924597  0.09775411  0.11082128     0.87300
H134        H  0.66919637  0.08079788  0.17142592    -0.06900
O135        O  0.70085937  0.04332586  0.13684184    -0.75900
Mg136      Mg  0.63267792  0.16746164  0.13875665     1.58000
H137        H  0.75855182  0.08651544  0.12215401    -0.06900
C138        C  0.75441494  0.21490043  0.06323461     0.92300
O139        O  0.63519244  0.21510169  0.08842565    -0.83100
C140        C  0.61664021  0.22764979  0.10140176     0.92300
O141        O  0.70171517  0.00717457  0.06996359    -0.83100
Mg142      Mg  0.62455262  0.99728339  0.14307618     1.58200
O143        O  0.72097426  0.21495337  0.07160719    -0.81500
O144        O  0.53067425  0.98931587  0.16950925    -0.83100
O145        O  0.46855835  0.13176622  0.40525232    -0.88700
C146        C  0.35342441  0.08165557  0.37386633     0.87300
Mg147      Mg  0.53108385  0.19007939  0.39644381     1.58100
O148        O  0.41379318  0.02332563  0.37321972    -0.88500
O149        O  0.44629899  0.06395084  0.41699633    -0.75800
C150        C  0.54464983  0.14917870  0.29827735     0.92300
O151        O  0.43847489  0.18890487  0.37651725    -0.75600
O152        O  0.56443337  0.18104497  0.31101024    -0.83100
Mg153      Mg  0.41061458  0.14324092  0.40442689     1.58000
C154        C  0.41799186  0.96761722  0.31767430     0.92300
O155        O  0.37963604  0.10334036  0.43307090    -0.81400
H156        H  0.43768368  0.98672805  0.38645580    -0.06700
C157        C  0.43117673  0.10516763  0.32633907     0.87200
O158        O  0.55462067  0.14257052  0.38295567    -0.75900
O159        O  0.38101827  0.08491275  0.38666418    -0.88600
O160        O  0.39723704  0.96514907  0.33392287    -0.81500
C161        C  0.29908818  0.94967778  0.37822793     0.92400
C162        C  0.35453472  0.06300829  0.43882965     0.92200
Mg163      Mg  0.49178843  0.06626136  0.33292013     1.58000
O164        O  0.51530022  0.10968708  0.30391069    -0.81400
O165        O  0.47156886  0.02026796  0.36120158    -0.75600
O166        O  0.31169064  0.98707548  0.38653864    -0.81500
O167        O  0.44391721  0.20399490  0.42364703    -0.83200
O168        O  0.60846868  0.22876969  0.35736169    -0.81500
C169        C  0.44062013  0.00909935  0.37426298     0.86700
O170        O  0.52755393  0.12413862  0.35236243    -0.88600
O171        O  0.43354520  0.07394657  0.33485133    -0.88700
O172        O  0.46309718  0.14601976  0.32708912    -0.75800
Mg173      Mg  0.38012345  0.02662799  0.39981358     1.58000
O174        O  0.31648655  0.94857651  0.36143473    -0.83200
H175        H  0.50178886  0.11919242  0.42734292    -0.06900
O176        O  0.50192674  0.19179682  0.36847599    -0.88400
H177        H  0.47907031  0.22765268  0.35385723    -0.06700
H178        H  0.56657434  0.10215398  0.36457512    -0.06900
C179        C  0.47395083  0.20422996  0.36592350     0.86700
C180        C  0.47325747  0.10583172  0.41735728     0.87200
C181        C  0.55030056  0.12214408  0.36637417     0.87300
H182        H  0.40125611  0.09761252  0.31797901    -0.06900
O183        O  0.34619820  0.05769912  0.35821848    -0.75900
Mg184      Mg  0.53458540  0.18630531  0.34176357     1.58000
H185        H  0.33518741  0.09964855  0.37599252    -0.06900
C186        C  0.48278955  0.23814666  0.42385914     0.92300
O187        O  0.59378794  0.24790353  0.38736835    -0.83100
C188        C  0.62147553  0.24988911  0.37428967     0.92300
O189        O  0.34613154  0.02986688  0.42762792    -0.83100
Mg190      Mg  0.37505034  0.01329521  0.34681597     1.58200
O191        O  0.51467603  0.24084422  0.41292273    -0.81500
O192        O  0.45283883  0.00409786  0.31256474    -0.83100
O193        O  0.59539290  0.69513520  0.24088751    -0.88700
C194        C  0.70221556  0.77478044  0.27560334     0.87300
Mg195      Mg  0.52808402  0.67036853  0.24868310     1.58100
O196        O  0.66872766  0.66008500  0.27406845    -0.88500
O197        O  0.63495026  0.66523801  0.23023316    -0.75800
C198        C  0.51560727  0.61203050  0.34725998     0.92300
O199        O  0.60191155  0.76958225  0.27214830    -0.75600
O200        O  0.49310776  0.62370531  0.33566344    -0.83100
Mg201      Mg  0.63963404  0.76602398  0.24447241     1.58000
C202        C  0.66938765  0.59821707  0.32857133     0.92300
O203        O  0.67852871  0.77010128  0.21590319    -0.81400
H204        H  0.65837687  0.60452205  0.25957820    -0.06700
C205        C  0.62497265  0.70260529  0.32120304     0.87200
O206        O  0.52169627  0.60473838  0.26101791    -0.75900
O207        O  0.67979181  0.74854210  0.26209523    -0.88600
O208        O  0.69255101  0.62569299  0.31468292    -0.81500
C209        C  0.78434604  0.72434114  0.27245729     0.92400
C210        C  0.71137821  0.76549233  0.21003524     0.92200
Mg211      Mg  0.58389531  0.60370030  0.31196357     1.58000
O212        O  0.54829650  0.60802160  0.34047062    -0.81400
O213        O  0.61727862  0.59280999  0.28367834    -0.75600
O214        O  0.76561625  0.74306188  0.26333807    -0.81500
O215        O  0.59651439  0.78508288  0.22634312    -0.83200
O216        O  0.44394024  0.62282943  0.28834726    -0.81500
C217        C  0.64888102  0.61880810  0.27186860     0.86700
O218        O  0.53941269  0.61510104  0.29309572    -0.88600
O219        O  0.63178255  0.67472347  0.31225347    -0.88700
O220        O  0.58771753  0.70248762  0.31993447    -0.75800
Mg221      Mg  0.69877279  0.70369927  0.24843263     1.58000
O222        O  0.76787729  0.70354253  0.28897781    -0.83200
H223        H  0.57474269  0.65046493  0.21846772    -0.06900
O224        O  0.54623774  0.70146969  0.27782631    -0.88400
H225        H  0.55456913  0.75466126  0.29363384    -0.06700
H226        H  0.51686992  0.55552414  0.27974106    -0.06900
C227        C  0.56639247  0.74223936  0.28145653     0.86700
C228        C  0.60077258  0.67015615  0.22918897     0.87200
C229        C  0.52496666  0.59024070  0.27823773     0.87300
H230        H  0.65144541  0.72793434  0.33030421    -0.06900
O231        O  0.71256532  0.76091914  0.29141733    -0.75900
Mg232      Mg  0.51794349  0.66098040  0.30433614     1.58000
H233        H  0.71297545  0.81016824  0.27399364    -0.06900
C234        C  0.55430853  0.76840707  0.22553938     0.92300
O235        O  0.45754687  0.64253197  0.25588932    -0.83100
C236        C  0.43027519  0.62392183  0.27027294     0.92300
O237        O  0.72873922  0.74805310  0.22127598    -0.83100
Mg238      Mg  0.69908860  0.69086632  0.30189922     1.58200
O239        O  0.52721478  0.73086191  0.23369794    -0.81500
O240        O  0.62940422  0.58923594  0.33225482    -0.83100
O241        O  0.38652141  0.49512133  0.57305979    -0.88700
C242        C  0.32036412  0.38694373  0.53632729     0.87300
Mg243      Mg  0.40598823  0.56203933  0.56573474     1.58100
O244        O  0.43671886  0.43632150  0.54147219    -0.88500
O245        O  0.42021784  0.46060816  0.58528248    -0.75800
C246        C  0.47128653  0.58686814  0.46762598     0.92300
O247        O  0.31293330  0.48286538  0.54032908    -0.75600
O248        O  0.45805813  0.60684892  0.47994187    -0.83100
Mg249      Mg  0.31801733  0.44542384  0.56786190     1.58000
C250        C  0.50135488  0.44209167  0.48771716     0.92300
O251        O  0.31420429  0.40497214  0.59614482    -0.81400
H252        H  0.49282136  0.45487953  0.55729471    -0.06700
C253        C  0.39071412  0.47265483  0.49309480     0.87200
O254        O  0.47483633  0.57571591  0.55436077    -0.75900
O255        O  0.34301188  0.41062420  0.55049980    -0.88600
O256        O  0.48501735  0.42697486  0.50495588    -0.81500
C257        C  0.38577055  0.31788082  0.54051455     0.92400
C258        C  0.32168692  0.37352428  0.60166121     0.92200
Mg259      Mg  0.48844680  0.52309172  0.50280814     1.58000
O260        O  0.47902586  0.55576310  0.47371891    -0.81400
O261        O  0.50175695  0.49299814  0.53219024    -0.75600
O262        O  0.36246866  0.33158386  0.54967625    -0.81500
O263        O  0.29215046  0.48316238  0.58601873    -0.83200
O264        O  0.44890559  0.64896550  0.52677374    -0.81500
C265        C  0.47742589  0.46097009  0.54434391     0.86700
O266        O  0.47118294  0.56347229  0.52168375    -0.88600
O267        O  0.41998728  0.47018660  0.50302082    -0.88700
O268        O  0.38575729  0.50729375  0.49378713    -0.75800
Mg269      Mg  0.39148714  0.39847648  0.56554147     1.58000
O270        O  0.40894499  0.33959510  0.52523271    -0.83200
H271        H  0.42617438  0.51779715  0.59723512    -0.06900
O272        O  0.37846292  0.54323922  0.53603213    -0.88400
H273        H  0.32523609  0.53072323  0.51929717    -0.06700
H274        H  0.52850748  0.58831284  0.53702974    -0.06900
C275        C  0.33842164  0.52003984  0.53163213     0.86700
C276        C  0.41094016  0.49207530  0.58585642     0.87200
C277        C  0.49301552  0.57703218  0.53746271     0.87300
H278        H  0.36880324  0.44478194  0.48360566    -0.06900
O279        O  0.33877479  0.38049604  0.52099604    -0.75900
Mg280      Mg  0.41959924  0.57662862  0.51026553     1.58000
H281        H  0.28427376  0.37153291  0.53696026    -0.06900
C282        C  0.30450248  0.52468968  0.58763458     0.92300
O283        O  0.42865079  0.63240361  0.55910412    -0.83100
C284        C  0.44553549  0.66067907  0.54489688     0.92300
O285        O  0.34434665  0.36125805  0.59088083    -0.83100
Mg286      Mg  0.41311393  0.40570715  0.51311415     1.58200
O287        O  0.34099139  0.55547146  0.57997240    -0.81500
O288        O  0.50642703  0.47987923  0.48203340    -0.83100
O289        O  0.10682450  0.47120756  0.90985470    -0.88700
C290        C  0.07911534  0.36481448  0.94569206     0.87300
Mg291      Mg  0.15653813  0.53659289  0.91727046     1.58100
O292        O  0.00667550  0.40888007  0.94796166    -0.88500
O293        O  0.03536423  0.43766952  0.90312827    -0.75800
C294        C  0.12866355  0.55954737  0.01721813     0.92300
O295        O  0.17663193  0.45706927  0.93673400    -0.75600
O296        O  0.16016782  0.57681018  0.00404989    -0.83100
Mg297      Mg  0.12651243  0.42106721  0.91111034     1.58000
C298        C  0.95393032  0.41098501  0.00379444     0.92300
O299        O  0.08142686  0.38241769  0.88424912    -0.81400
H300        H  0.96158315  0.42221344  0.93521994    -0.06700
C301        C  0.09603425  0.44323826  0.99208825     0.87200
O302        O  0.10379178  0.55054539  0.93221774    -0.75900
O303        O  0.07440651  0.38738637  0.93225711    -0.88600
O304        O  0.95394561  0.39042451  0.98792261    -0.81500
C305        C  0.94695965  0.29079932  0.94704167     0.92400
C306        C  0.04121769  0.35126527  0.88150516     0.92200
Mg307      Mg  0.04424848  0.49269560  0.98559857     1.58000
O308        O  0.08963524  0.52762325  0.01288069    -0.81400
O309        O  0.99505110  0.46247173  0.95887419    -0.75600
O310        O  0.98396781  0.30800907  0.93797986    -0.81500
O311        O  0.18232524  0.45830806  0.88922413    -0.83200
O312        O  0.20194860  0.62010561  0.95655698    -0.81500
C313        C  0.98664818  0.43053979  0.94676507     0.86700
O314        O  0.09787674  0.53268174  0.96444797    -0.88600
O315        O  0.06173501  0.44022079  0.98443390    -0.88700
O316        O  0.13452833  0.47775466  0.98940851    -0.75800
Mg317      Mg  0.01000987  0.37409344  0.92222284     1.58000
O318        O  0.94438476  0.30861105  0.96341162    -0.83200
H319        H  0.08114376  0.49556604  0.88953498    -0.06900
O320        O  0.16871424  0.51446770  0.94559266    -0.88400
H321        H  0.21459603  0.50213045  0.95809488    -0.06700
H322        H  0.06402065  0.56017786  0.95190797    -0.06900
C323        C  0.18802071  0.49214755  0.94717958     0.86700
C324        C  0.07510688  0.46908064  0.90015406     0.87200
C325        C  0.08802990  0.54871704  0.94981106     0.87300
H326        H  0.09334067  0.41565171  0.00115378    -0.06900
O327        O  0.05773083  0.35643785  0.96230441    -0.75900
Mg328      Mg  0.16456643  0.54695352  0.97290523     1.58000
H329        H  0.10186542  0.35191140  0.94326422    -0.06900
C330        C  0.21369322  0.49888259  0.88896629     0.92300
O331        O  0.20581057  0.60564223  0.92407090    -0.83100
C332        C  0.21640133  0.63318479  0.93844254     0.92300
O333        O  0.01200090  0.33865346  0.89525040    -0.83100
Mg334      Mg  0.00623067  0.37556351  0.97487586     1.58200
O335        O  0.21267216  0.52918697  0.89986204    -0.81500
O336        O  0.98700578  0.44940130  0.00800776    -0.83100
O337        O  0.12372463  0.68546162  0.24076144    -0.88700
C338        C  0.09948202  0.76355693  0.20247698     0.87300
Mg339      Mg  0.16945981  0.66298912  0.23488660     1.58100
O340        O  0.02073495  0.64862952  0.20304251    -0.88500
O341        O  0.05243502  0.65353366  0.24819922    -0.75800
C342        C  0.13972591  0.60568256  0.13606049     0.92300
O343        O  0.19495744  0.76187671  0.21102964    -0.75600
O344        O  0.16927100  0.61401499  0.14967800    -0.83100
Mg345      Mg  0.14788982  0.75587155  0.23685256     1.58000
C346        C  0.96903074  0.59009168  0.14679372     0.92300
O347        O  0.10622280  0.75640225  0.26374839    -0.81400
H348        H  0.97373517  0.59271075  0.21662082    -0.06700
C349        C  0.11228018  0.69366727  0.15889091     0.87200
O350        O  0.11329179  0.59690811  0.22160387    -0.75900
O351        O  0.09424491  0.73749153  0.21652661    -0.88600
O352        O  0.96758686  0.61337458  0.16141239    -0.81500
C353        C  0.96777032  0.71337474  0.20181328     0.92400
C354        C  0.06739104  0.75076455  0.26759135     0.92200
Mg355      Mg  0.05649638  0.59502471  0.16744482     1.58000
O356        O  0.10217415  0.60294997  0.14035640    -0.81400
O357        O  0.00686648  0.58156084  0.19386281    -0.75600
O358        O  0.00503420  0.73248617  0.21065943    -0.81500
O359        O  0.20604367  0.77543540  0.25775974    -0.83200
O360        O  0.21139228  0.61615811  0.19755208    -0.81500
C361        C  0.99931314  0.60728136  0.20508245     0.86700
O362        O  0.10856510  0.60641368  0.18905138    -0.88600
O363        O  0.07677625  0.66524660  0.16688460    -0.88700
O364        O  0.14927904  0.69397652  0.16180684    -0.75800
Mg365      Mg  0.02907287  0.69200740  0.22802667     1.58000
O366        O  0.96391968  0.69091657  0.18593220    -0.83200
H367        H  0.09601496  0.63906407  0.26254381    -0.06900
O368        O  0.18388766  0.69390199  0.20558590    -0.88400
H369        H  0.23073788  0.74777642  0.19086715    -0.06700
H370        H  0.07103460  0.54733461  0.20286412    -0.06900
C371        C  0.20465601  0.73483901  0.20221642     0.86700
C372        C  0.09137202  0.65918365  0.25119962     0.87200
C373        C  0.09698797  0.58205164  0.20425485     0.87300
H374        H  0.11195736  0.71896834  0.14917148    -0.06900
O375        O  0.07709634  0.74966764  0.18624899    -0.75900
Mg376      Mg  0.17633940  0.65300623  0.17966814     1.58000
H377        H  0.12350994  0.79890288  0.20403309    -0.06900
C378        C  0.23401432  0.76142273  0.25933801     0.92300
O379        O  0.21510197  0.63674188  0.22969024    -0.83100
C380        C  0.22536573  0.61817356  0.21580386     0.92300
O381        O  0.03638540  0.73514554  0.25457925    -0.83100
Mg382      Mg  0.02296785  0.67960386  0.17498241     1.58200
O383        O  0.22807421  0.72547175  0.25076518    -0.81500
O384        O  0.00163120  0.58261536  0.14455962    -0.83100
O385        O  0.58170330  0.94274265  0.91359933    -0.88700
C386        C  0.68633243  0.96811771  0.87757930     0.87300
Mg387      Mg  0.51542449  0.89493713  0.90624718     1.58100
O388        O  0.64613437  0.04444643  0.87630587    -0.88500
O389        O  0.61770879  0.01384856  0.92140799    -0.75800
C390        C  0.49451391  0.92534193  0.80671165     0.92300
O391        O  0.59202919  0.87163681  0.88588939    -0.75600
O392        O  0.47458248  0.89392989  0.81983057    -0.83100
Mg393      Mg  0.62961556  0.92019802  0.91176656     1.58000
C394        C  0.64243148  0.09997009  0.82096462     0.92300
O395        O  0.67059311  0.96299448  0.93869419    -0.81400
H396        H  0.63407351  0.08996172  0.88956113    -0.06700
C397        C  0.60764871  0.95492325  0.83159853     0.87200
O398        O  0.50323609  0.94946296  0.89209865    -0.75900
O399        O  0.66470413  0.97332729  0.89121394    -0.88600
O400        O  0.66632068  0.09777493  0.83506490    -0.81500
C401        C  0.76250796  0.10068392  0.87661481     0.92400
C402        C  0.70312030  0.00237537  0.94193527     0.92200
Mg403      Mg  0.56081524  0.00880069  0.83920064     1.58000
O404        O  0.52642485  0.96396673  0.81173315    -0.81400
O405        O  0.59262245  0.05702534  0.86617531    -0.75600
O406        O  0.74540745  0.06373368  0.88587413    -0.81500
O407        O  0.59069778  0.86377477  0.93324848    -0.83200
O408        O  0.43129909  0.85098283  0.86717847    -0.81500
C409        C  0.62501517  0.06497502  0.87789812     0.86700
O410        O  0.52039014  0.95477352  0.85987370    -0.88600
O411        O  0.61198154  0.98954036  0.83960529    -0.88700
O412        O  0.57252416  0.91676709  0.83412066    -0.75800
Mg413      Mg  0.68042221  0.03834842  0.90200807     1.58000
O414        O  0.74526575  0.10324162  0.86007162    -0.83200
H415        H  0.55940265  0.96852393  0.93475378    -0.06900
O416        O  0.53582575  0.88186912  0.87772905    -0.88400
H417        H  0.54605609  0.83511632  0.86460905    -0.06700
H418        H  0.49428310  0.98985550  0.87240183    -0.06900
C419        C  0.55698262  0.86148745  0.87572148     0.86700
C420        C  0.58532361  0.97434872  0.92393349     0.87200
C421        C  0.50495866  0.96516797  0.87449886     0.87300
H422        H  0.63458482  0.95702594  0.82234645    -0.06900
O423        O  0.69460950  0.98986857  0.86105980    -0.75900
Mg424      Mg  0.50388645  0.88772619  0.85077137     1.58000
H425        H  0.69836747  0.94451403  0.87972715    -0.06900
C426        C  0.54959296  0.83394681  0.93336946     0.92300
O427        O  0.44579576  0.84737847  0.89968848    -0.83100
C428        C  0.41830392  0.83677054  0.88532302     0.92300
O429        O  0.71589161  0.03330477  0.92884871    -0.83100
Mg430      Mg  0.67756824  0.04325967  0.84885507     1.58200
O431        O  0.52041422  0.83713118  0.92265110    -0.81500
O432        O  0.60321799  0.06755745  0.81745894    -0.83100
O433        O  0.36214354  0.91588378  0.58249043    -0.88700
C434        C  0.31509687  0.98812803  0.61392045     0.87300
Mg435      Mg  0.36932274  0.86395943  0.59562148     1.58100
O436        O  0.43230012  0.04246867  0.60851806    -0.88500
O437        O  0.40937268  0.98122633  0.56964352    -0.75800
C438        C  0.46114926  0.93597685  0.68694586     0.92300
O439        O  0.29122005  0.88143521  0.61920615    -0.75600
O440        O  0.44287309  0.89960597  0.67675406    -0.83100
Mg441      Mg  0.29946200  0.91435485  0.58816091     1.58000
C442        C  0.50348399  0.10856725  0.65997133     0.92300
O443        O  0.29930314  0.94305267  0.55699250    -0.81400
H444        H  0.48831586  0.07482686  0.59201713    -0.06700
C445        C  0.38337646  0.97460343  0.66148862     0.87200
O446        O  0.44458799  0.91515971  0.60234046    -0.75900
O447        O  0.33561924  0.97972559  0.60088826    -0.88600
O448        O  0.48251692  0.10803362  0.64409204    -0.81500
C449        C  0.38969953  0.11881864  0.60305263     0.92400
C450        C  0.31552525  0.98173287  0.54882620     0.92200
Mg451      Mg  0.47817210  0.00804559  0.64814381     1.58000
O452        O  0.46994769  0.97344554  0.67892871    -0.81400
O453        O  0.49519742  0.04653242  0.61781510    -0.75600
O454        O  0.37550512  0.08555012  0.59124014    -0.81500
O455        O  0.25970120  0.84452609  0.57559633    -0.83200
O456        O  0.42939658  0.84552474  0.63152417    -0.81500
C457        C  0.47239795  0.05555182  0.60547088     0.86700
O458        O  0.44986213  0.94538451  0.63217168    -0.88600
O459        O  0.41223827  0.00084923  0.64940779    -0.88700
O460        O  0.37407748  0.93356260  0.66338761    -0.75800
Mg461      Mg  0.39005029  0.03009229  0.58330292     1.58000
O462        O  0.40673519  0.11859700  0.62015708    -0.83200
H463        H  0.40572036  0.92282418  0.56089625    -0.06900
O464        O  0.35267098  0.87824235  0.62417227    -0.88400
H465        H  0.30150185  0.85198223  0.64368770    -0.06700
H466        H  0.50351580  0.96159469  0.61481172    -0.06900
C467        C  0.31461469  0.86929340  0.62952202     0.86700
C468        C  0.39208446  0.93891631  0.57033680     0.87200
C469        C  0.46756625  0.94170683  0.61652224     0.87300
H470        H  0.36565412  0.98680412  0.67071171    -0.06900
O471        O  0.33535366  0.01422358  0.62847250    -0.75900
Mg472      Mg  0.39957931  0.88847556  0.64812685     1.58000
H473        H  0.27895487  0.97182192  0.61323361    -0.06900
C474        C  0.26345190  0.80958096  0.57785339     0.92300
O475        O  0.37402849  0.80864262  0.61033704    -0.83100
C476        C  0.41215503  0.81803835  0.61678343     0.92300
O477        O  0.34556730  0.01700821  0.55720426    -0.83100
Mg478      Mg  0.40976286  0.05849710  0.63569886     1.58200
O479        O  0.29750285  0.81078199  0.58619588    -0.81500
O480        O  0.50537224  0.07387823  0.66550992    -0.83100
O481        O  0.68027626  0.59561809  0.07135009    -0.88700
C482        C  0.73302649  0.70360972  0.03378009     0.87300
Mg483      Mg  0.66554956  0.53057154  0.06323691     1.58100
O484        O  0.61696910  0.64356636  0.04254064    -0.88500
O485        O  0.64354457  0.62468909  0.08565270    -0.75800
C486        C  0.58254723  0.49635765  0.96797290     0.92300
O487        O  0.75210859  0.61378678  0.03669658    -0.75600
O488        O  0.60354143  0.48136021  0.97866538    -0.83100
Mg489      Mg  0.74631251  0.64916213  0.06487003     1.58000
C490        C  0.54125776  0.63091717  0.99159169     0.92300
O491        O  0.74885002  0.68846194  0.09359729    -0.81400
H492        H  0.56284942  0.62117055  0.06033726    -0.06700
C493        C  0.66207156  0.61431703  0.99083652     0.87200
O494        O  0.59369603  0.51076565  0.05436659    -0.75900
O495        O  0.71414904  0.67875820  0.04841148    -0.88600
O496        O  0.55934809  0.64722162  0.00837416    -0.81500
C497        C  0.65519183  0.75856420  0.04269572     0.92400
C498        C  0.73812457  0.71762889  0.09917935     0.92200
Mg499      Mg  0.56464575  0.55568436  0.00472044     1.58000
O500        O  0.57145470  0.52412104  0.97519741    -0.81400
O501        O  0.55294608  0.58372715  0.03505688    -0.75600
O502        O  0.68497501  0.74917080  0.04787882    -0.81500
O503        O  0.77857397  0.61548673  0.08225969    -0.83200
O504        O  0.62041403  0.44373199  0.02495880    -0.81500
C505        C  0.57732249  0.61654022  0.04669076     0.86700
O506        O  0.59057297  0.52079034  0.02174026    -0.88600
O507        O  0.63385404  0.61372133  0.00333238    -0.88700
O508        O  0.67139907  0.58250921  0.99042749    -0.75800
Mg509      Mg  0.66396277  0.68515263  0.06511275     1.58000
O510        O  0.62991396  0.73727075  0.02803317    -0.83200
H511        H  0.64574510  0.57056820  0.09693229    -0.06900
O512        O  0.68828101  0.55124556  0.03287094    -0.88400
H513        H  0.74103232  0.56810342  0.01489247    -0.06700
H514        H  0.53602296  0.49229555  0.03921694    -0.06900
C515        C  0.72760305  0.57678276  0.02779294     0.86700
C516        C  0.65671663  0.59607223  0.08529196     0.87200
C517        C  0.57196321  0.50658330  0.03826131     0.87300
H518        H  0.67898364  0.64249247  0.98060416    -0.06900
O519        O  0.71059148  0.70861292  0.01967851    -0.75900
Mg520      Mg  0.64475400  0.51447227  0.00801515     1.58000
H521        H  0.76921738  0.72176225  0.03305096    -0.06900
C522        C  0.76906138  0.57454095  0.08342875     0.92300
O523        O  0.64766510  0.46175463  0.05620548    -0.83100
C524        C  0.62737817  0.43281641  0.04266280     0.92300
O525        O  0.71265305  0.72669432  0.08869156    -0.83100
Mg526      Mg  0.63393247  0.67673797  0.01420303     1.58200
O527        O  0.73369593  0.54265656  0.07565868    -0.81500
O528        O  0.53898296  0.59464376  0.98553418    -0.83100
O529        O  0.46274449  0.37209755  0.74109612    -0.88700
C530        C  0.35653809  0.29369182  0.77611514     0.87300
Mg531      Mg  0.52870172  0.39118552  0.74933868     1.58100
O532        O  0.39620789  0.40975635  0.77667516    -0.88500
O533        O  0.42692694  0.40697509  0.73191264    -0.75800
C534        C  0.54568174  0.44373713  0.84879928     0.92300
O535        O  0.45216643  0.29147876  0.76954345    -0.75600
O536        O  0.56588071  0.43182153  0.83597990    -0.83100
Mg537      Mg  0.41577247  0.30196019  0.74275649     1.58000
C538        C  0.39692889  0.47053153  0.83153595     0.92300
O539        O  0.37672430  0.30395208  0.71496679    -0.81400
H540        H  0.40914468  0.46720516  0.76296272    -0.06700
C541        C  0.43287160  0.35933423  0.82306080     0.87200
O542        O  0.53874109  0.45707033  0.76304341    -0.75900
O543        O  0.37857126  0.31981836  0.76234516    -0.88600
O544        O  0.37292322  0.44329900  0.81786087    -0.81500
C545        C  0.28009783  0.35150998  0.77451515     0.92400
C546        C  0.34470853  0.31135695  0.71072558     0.92200
Mg547      Mg  0.47948131  0.45948154  0.81502122     1.58000
O548        O  0.51323829  0.44985809  0.84346462    -0.81400
O549        O  0.44877241  0.47531990  0.78715597    -0.75600
O550        O  0.29700427  0.33035996  0.76612188    -0.81500
O551        O  0.45708943  0.28536218  0.72209419    -0.83200
O552        O  0.61164136  0.43140029  0.78920107    -0.81500
C553        C  0.41736853  0.45118238  0.77501628     0.86700
O554        O  0.52112287  0.44565666  0.79522695    -0.88600
O555        O  0.42845368  0.38943151  0.81471447    -0.88700
O556        O  0.46845200  0.35647983  0.82110180    -0.75800
Mg557      Mg  0.36329446  0.36920981  0.75065655     1.58000
O558        O  0.29676536  0.37137748  0.79106644    -0.83200
H559        H  0.48598201  0.41924408  0.71948652    -0.06900
O560        O  0.50748864  0.35762489  0.77794783    -0.88400
H561        H  0.49678313  0.30095487  0.79164038    -0.06700
H562        H  0.54644441  0.50626133  0.78231175    -0.06900
C563        C  0.48644333  0.31629666  0.78008874     0.86700
C564        C  0.45951768  0.39964637  0.73015099     0.87200
C565        C  0.53648111  0.47114238  0.78048470     0.87300
H566        H  0.40567107  0.33457205  0.83216862    -0.06900
O567        O  0.34750495  0.30775934  0.79224139    -0.75900
Mg568      Mg  0.53803943  0.39567675  0.80504063     1.58000
H569        H  0.34473453  0.25813891  0.77442704    -0.06900
C570        C  0.49862909  0.29792681  0.72202588     0.92300
O571        O  0.59783315  0.41381627  0.75669029    -0.83100
C572        C  0.62504016  0.43049518  0.77110300     0.92300
O573        O  0.33017109  0.32893510  0.72331892    -0.83100
Mg574      Mg  0.36325820  0.37790983  0.80402378     1.58200
O575        O  0.52673378  0.33005258  0.73296899    -0.81500
O576        O  0.43598008  0.47690909  0.83553377    -0.83100
C577        C  0.55932230  0.45086473  0.87061129    -0.05600
C578        C  0.59849979  0.45155316  0.87751040    -0.05600
C579        C  0.61060482  0.45874723  0.89804082    -0.23700
C580        C  0.58372624  0.46522402  0.91222592     0.18500
C581        C  0.54417445  0.46415693  0.90543833     0.15700
C582        C  0.53235286  0.45705114  0.88490735    -0.18800
C583        C  0.51708059  0.47078055  0.91923833    -0.20600
C584        C  0.52940438  0.47957909  0.93946270    -0.13100
C585        C  0.56890156  0.48152870  0.94666702     0.03500
C586        C  0.59578708  0.47353693  0.93291880    -0.25300
H587        H  0.62002771  0.44688804  0.86700656     0.08600
H588        H  0.64115474  0.45947355  0.90279550     0.12200
H589        H  0.50186996  0.45642745  0.88007902     0.12100
H590        H  0.48656616  0.46995050  0.91431642     0.11900
H591        H  0.50800095  0.48547841  0.94955381     0.12400
H592        H  0.62662726  0.47546747  0.93810483     0.14400
C593        C  0.51412122  0.27578401  0.70777905    -0.05600
C594        C  0.50921743  0.28097191  0.68713958    -0.05600
C595        C  0.51419583  0.25353110  0.67311736    -0.23700
C596        C  0.52281073  0.21952280  0.67963395     0.18500
C597        C  0.53029422  0.21555428  0.70031899     0.15700
C598        C  0.52666188  0.24444607  0.71433748    -0.18800
C599        C  0.53758615  0.18046879  0.70670194    -0.20600
C600        C  0.53304482  0.14723104  0.69308395    -0.13100
C601        C  0.52194436  0.14911162  0.67283587     0.03500
C602        C  0.51989313  0.18704022  0.66601450    -0.25300
H603        H  0.49941404  0.30498116  0.68195636     0.08600
H604        H  0.50844932  0.25702574  0.65732176     0.12200
H605        H  0.52987324  0.24012492  0.73033001     0.12100
H606        H  0.54376757  0.17703772  0.72244243     0.11900
H607        H  0.53504045  0.11849101  0.69872272     0.12400
H608        H  0.51179133  0.18922113  0.65040577     0.14400
C609        C  0.52644221  0.65686787  0.97893030    -0.05600
C610        C  0.51427529  0.64583553  0.95865266    -0.05600
C611        C  0.51027279  0.67638493  0.94581940    -0.23700
C612        C  0.51935310  0.71867841  0.95301579     0.18500
C613        C  0.52906599  0.72867558  0.97367884     0.15700
C614        C  0.53129552  0.69737422  0.98649849    -0.18800
C615        C  0.53989841  0.77119584  0.98099599    -0.20600
C616        C  0.54406862  0.80466669  0.96774001    -0.13100
C617        C  0.53605877  0.79576158  0.94711935     0.03500
C618        C  0.52205269  0.75228997  0.93981769    -0.25300
H619        H  0.51019315  0.61475527  0.95247603     0.08600
H620        H  0.50257719  0.66796776  0.93005829     0.12200
H621        H  0.54037313  0.70630728  0.00214012     0.12100
H622        H  0.54760126  0.77933266  0.99678793     0.11900
H623        H  0.55523684  0.83818851  0.97346164     0.12400
H624        H  0.51668877  0.74575284  0.92379486     0.14400
C625        C  0.47399463  0.93675993  0.70853506    -0.05600
C626        C  0.51072126  0.97622642  0.71594055    -0.05600
C627        C  0.52193437  0.98086682  0.73632742    -0.23700
C628        C  0.49636734  0.94633962  0.75003899     0.18500
C629        C  0.45959538  0.90605315  0.74305510     0.15700
C630        C  0.44877023  0.90121370  0.72221846    -0.18800
C631        C  0.43414552  0.87193405  0.75716619    -0.20600
C632        C  0.44501567  0.87782630  0.77783287    -0.13100
C633        C  0.48151998  0.91800358  0.78488337     0.03500
C634        C  0.50700294  0.95196825  0.77066941    -0.25300
H635        H  0.53080616  0.00406761  0.70587665     0.08600
H636        H  0.55031070  0.01192638  0.74142474     0.12200
H637        H  0.42006421  0.87078408  0.71683239     0.12100
H638        H  0.40573370  0.84074202  0.75224082     0.11900
H639        H  0.42478812  0.85095282  0.78828951     0.12400
H640        H  0.53543662  0.98316361  0.77561989     0.14400
C641        C  0.79773728  0.56348625  0.09589687    -0.05600
C642        C  0.78403400  0.54823425  0.11566558    -0.05600
C643        C  0.81358112  0.54536119  0.12925561    -0.23700
C644        C  0.85723905  0.55740354  0.12318189     0.18500
C645        C  0.87020627  0.56944627  0.10283828     0.15700
C646        C  0.84042145  0.57290966  0.08930667    -0.18800
C647        C  0.91359058  0.58026472  0.09674298    -0.20600
C648        C  0.94482356  0.58260683  0.11095814    -0.13100
C649        C  0.93332078  0.57479410  0.13147972     0.03500
C650        C  0.88894688  0.56045419  0.13737925    -0.25300
H651        H  0.75115003  0.54085803  0.12089949     0.08600
H652        H  0.80290902  0.53553638  0.14470382     0.12200
H653        H  0.85094222  0.58460864  0.07401075     0.12100
H654        H  0.92399672  0.58898619  0.08119443     0.11900
H655        H  0.97895084  0.59393778  0.10613565     0.12400
H656        H  0.87986481  0.55422757  0.15318797     0.14400
C657        C  0.37641235  0.49233736  0.84356982    -0.05600
C658        C  0.38944977  0.50574929  0.86358088    -0.05600
C659        C  0.36311712  0.51637884  0.87620163    -0.23700
C660        C  0.32322080  0.51349210  0.86903277     0.18500
C661        C  0.31178340  0.50319972  0.84851579     0.15700
C662        C  0.33866511  0.49337118  0.83593796    -0.18800
C663        C  0.27177268  0.49941766  0.84121380    -0.20600
C664        C  0.24154160  0.50211275  0.85441577    -0.13100
C665        C  0.25117768  0.50975095  0.87503065     0.03500
C666        C  0.29291659  0.51730259  0.88220553    -0.25300
H667        H  0.41837318  0.50529550  0.86983193     0.08600
H668        H  0.37269531  0.52450200  0.89183513     0.12200
H669        H  0.32841738  0.48353983  0.82047048     0.12100
H670        H  0.26256963  0.49159822  0.82552074     0.11900
H671        H  0.20929804  0.49560850  0.84872999     0.12400
H672        H  0.30003156  0.52220660  0.89819967     0.14400
C673        C  0.14796508  0.59899507  0.11449461    -0.05600
C674        C  0.17629136  0.58189849  0.10897113    -0.05600
C675        C  0.18078115  0.57300331  0.08861880    -0.23700
C676        C  0.15750137  0.58157779  0.07330651     0.18500
C677        C  0.13017594  0.60017247  0.07870585     0.15700
C678        C  0.12552346  0.60853096  0.09909120    -0.18800
C679        C  0.10678903  0.60899988  0.06368933    -0.20600
C680        C  0.10880848  0.59784052  0.04362154    -0.13100
C681        C  0.13474577  0.57825105  0.03792891     0.03500
C682        C  0.15977904  0.57077052  0.05284261    -0.25300
H683        H  0.19397258  0.57421520  0.12043915     0.08600
H684        H  0.20199332  0.55881804  0.08489275     0.12200
H685        H  0.10389641  0.62217366  0.10299975     0.12100
H686        H  0.08576737  0.62334103  0.06755345     0.11900
H687        H  0.08884109  0.60328753  0.03250062     0.12400
H688        H  0.17916805  0.55479097  0.04870453     0.14400
C689        C  0.24723998  0.68096148  0.93262608    -0.05600
C690        C  0.27554007  0.71329662  0.94650661    -0.05600
C691        C  0.31114527  0.75440481  0.93964524    -0.23700
C692        C  0.31951570  0.76315060  0.91883390     0.18500
C693        C  0.28956849  0.73228047  0.90481065     0.15700
C694        C  0.25297456  0.69225920  0.91181685    -0.18800
C695        C  0.29862741  0.74021996  0.88401166    -0.20600
C696        C  0.33922436  0.77642484  0.87718605    -0.13100
C697        C  0.37073436  0.80575881  0.89106937     0.03500
C698        C  0.35909133  0.80034739  0.91183111    -0.25300
H699        H  0.27184797  0.70580497  0.96249082     0.08600
H700        H  0.33384224  0.77809965  0.95059365     0.12200
H701        H  0.23089112  0.66821082  0.90080239     0.12100
H702        H  0.27565125  0.71674087  0.87307426     0.11900
H703        H  0.34709767  0.77973262  0.86124921     0.12400
H704        H  0.38263079  0.82312965  0.92281767     0.14400
C705        C  0.79993639  0.14015041  0.88631778    -0.05600
C706        C  0.83715186  0.17153409  0.87529091    -0.05600
C707        C  0.87345876  0.20669710  0.88522062    -0.23700
C708        C  0.87245633  0.21168561  0.90623581     0.18500
C709        C  0.83433451  0.18138053  0.91736073     0.15700
C710        C  0.79859072  0.14547885  0.90736054    -0.18800
C711        C  0.83276519  0.18750384  0.93826489    -0.20600
C712        C  0.86904018  0.22307928  0.94812667    -0.13100
C713        C  0.90775225  0.25252461  0.93730368     0.03500
C714        C  0.90893536  0.24652497  0.91628972    -0.25300
H715        H  0.83874284  0.16801539  0.85913829     0.08600
H716        H  0.90242369  0.22973455  0.87647943     0.12200
H717        H  0.76951291  0.12173741  0.91592639     0.12100
H718        H  0.80343080  0.16495296  0.94696583     0.11900
H719        H  0.86704035  0.22725483  0.96420005     0.12400
H720        H  0.93810253  0.26944817  0.90761222     0.14400
C721        C  0.30635199  0.35280979  0.62171525    -0.05600
C722        C  0.28831399  0.37099995  0.63539992    -0.05600
C723        C  0.28434002  0.35945731  0.65576099    -0.23700
C724        C  0.29922168  0.33031959  0.66269645     0.18500
C725        C  0.31332737  0.30858053  0.64878555     0.15700
C726        C  0.31564173  0.31908349  0.62827220    -0.18800
C727        C  0.32935894  0.28039515  0.65580507    -0.20600
C728        C  0.33658427  0.27827313  0.67638511    -0.13100
C729        C  0.32643418  0.30312821  0.69014020     0.03500
C730        C  0.30463876  0.32632830  0.68331924    -0.25300
H731        H  0.28009009  0.39642328  0.63065078     0.08600
H732        H  0.27289490  0.37592147  0.66624172     0.12200
H733        H  0.32879813  0.30419263  0.61778142     0.12100
H734        H  0.33967479  0.26295446  0.64533078     0.11900
H735        H  0.35257026  0.25941874  0.68139618     0.12400
H736        H  0.29646472  0.34545776  0.69381332     0.14400
C737        C  0.43649225  0.79992605  0.60485007    -0.05600
C738        C  0.46349997  0.78439073  0.61364510    -0.05600
C739        C  0.47892315  0.76037672  0.60199307    -0.23700
C740        C  0.46743069  0.75156287  0.58144205     0.18500
C741        C  0.44326004  0.77008308  0.57216665     0.15700
C742        C  0.42849453  0.79445963  0.58385370    -0.18800
C743        C  0.43112333  0.76088058  0.55174647    -0.20600
C744        C  0.43826927  0.72939846  0.54122881    -0.13100
C745        C  0.45827297  0.70726340  0.55089620     0.03500
C746        C  0.47587301  0.72123467  0.57052457    -0.25300
H747        H  0.47049335  0.78854485  0.62963817     0.08600
H748        H  0.49779347  0.74662234  0.60930745     0.12200
H749        H  0.40843050  0.80716115  0.57675722     0.12100
H750        H  0.41280199  0.77522006  0.54440547     0.11900
H751        H  0.42378586  0.71884412  0.52639543     0.12400
H752        H  0.49109503  0.70406861  0.57821076     0.14400
C753        C  0.38850617  0.15900407  0.59515121    -0.05600
C754        C  0.37946743  0.18684523  0.60747638    -0.05600
C755        C  0.37590750  0.22272238  0.59901761    -0.23700
C756        C  0.38239282  0.23192994  0.57818467     0.18500
C757        C  0.39310272  0.20512406  0.56579198     0.15700
C758        C  0.39555448  0.16869336  0.57429909    -0.18800
C759        C  0.40129731  0.21527405  0.54511408    -0.20600
C760        C  0.39891116  0.25178100  0.53674017    -0.13100
C761        C  0.38711730  0.27803135  0.54878334     0.03500
C762        C  0.37878881  0.26768768  0.56954929    -0.25300
H763        H  0.37399875  0.18014240  0.62349181     0.08600
H764        H  0.36804086  0.24327493  0.60876806     0.12200
H765        H  0.40330614  0.14787903  0.56464160     0.12100
H766        H  0.40991690  0.19516678  0.53544051     0.11900
H767        H  0.40593770  0.25928857  0.52084441     0.12400
H768        H  0.37061081  0.28826199  0.57914743     0.14400
C769        C  0.50453117  0.60111561  0.36918665    -0.05600
C770        C  0.51488294  0.56988940  0.37810374    -0.05600
C771        C  0.51037442  0.56149557  0.39880512    -0.23700
C772        C  0.49561421  0.58430083  0.41142104     0.18500
C773        C  0.48442607  0.61552023  0.40299222     0.15700
C774        C  0.48858911  0.62360331  0.38180219    -0.18800
C775        C  0.46994033  0.63825812  0.41605628    -0.20600
C776        C  0.46635028  0.62985564  0.43702363    -0.13100
C777        C  0.47721830  0.59855385  0.44550149     0.03500
C778        C  0.49203028  0.57614924  0.43236300    -0.25300
H779        H  0.52718391  0.55201637  0.36897721     0.08600
H780        H  0.51903265  0.53739046  0.40499354     0.12200
H781        H  0.48103373  0.64823992  0.37532206     0.12100
H782        H  0.46122848  0.66246228  0.41006362     0.11900
H783        H  0.45461012  0.64755990  0.44657448     0.12400
H784        H  0.50056734  0.55182359  0.43839570     0.14400
C785        C  0.25635816  0.60134598  0.22209509    -0.05600
C786        C  0.28615788  0.59860681  0.20846066    -0.05600
C787        C  0.32283105  0.59496282  0.21557055    -0.23700
C788        C  0.33075989  0.59491795  0.23642472     0.18500
C789        C  0.29944237  0.59439027  0.25026171     0.15700
C790        C  0.26188822  0.59630606  0.24299470    -0.18800
C791        C  0.30807507  0.59561324  0.27111257    -0.20600
C792        C  0.34934846  0.60155074  0.27814947    -0.13100
C793        C  0.38216873  0.60528330  0.26444670     0.03500
C794        C  0.37110968  0.59898558  0.24362679    -0.25300
H795        H  0.28292232  0.60236842  0.19243765     0.08600
H796        H  0.34661487  0.59515192  0.20475772     0.12200
H797        H  0.23889301  0.59768107  0.25381514     0.12100
H798        H  0.28408662  0.59493583  0.28194164     0.11900
H799        H  0.35661603  0.60613437  0.29411354     0.12400
H800        H  0.39558668  0.60093750  0.23272691     0.14400
C801        C  0.92941299  0.71526209  0.21137858    -0.05600
C802        C  0.88860854  0.70094777  0.20134247    -0.05600
C803        C  0.85234686  0.70070288  0.21131672    -0.23700
C804        C  0.85593930  0.71372494  0.23163951     0.18500
C805        C  0.89653328  0.72753528  0.24196035     0.15700
C806        C  0.93301145  0.72890706  0.23170462    -0.18800
C807        C  0.89977186  0.73913976  0.26246529    -0.20600
C808        C  0.86299807  0.73688314  0.27274390    -0.13100
C809        C  0.82294201  0.72439691  0.26248998     0.03500
C810        C  0.81967286  0.71297147  0.24189823    -0.25300
H811        H  0.88473481  0.68989374  0.18584029     0.08600
H812        H  0.82127350  0.68976110  0.20321165     0.12200
H813        H  0.96395652  0.73942484  0.23984722     0.12100
H814        H  0.93075570  0.74994957  0.27057515     0.11900
H815        H  0.86618557  0.74603312  0.28850487     0.12400
H816        H  0.78856407  0.70295211  0.23393675     0.14400
C817        C  0.75245487  0.73914741  0.11906270    -0.05600
C818        C  0.77937565  0.72925663  0.13166551    -0.05600
C819        C  0.78365842  0.74050703  0.15205732    -0.23700
C820        C  0.76018657  0.76076635  0.16012748     0.18500
C821        C  0.73634126  0.77438489  0.14719095     0.15700
C822        C  0.73362292  0.76451533  0.12666555    -0.18800
C823        C  0.71191343  0.79358417  0.15525018    -0.20600
C824        C  0.70691361  0.79447537  0.17605917    -0.13100
C825        C  0.72705159  0.77702232  0.18902881     0.03500
C826        C  0.75639255  0.76338296  0.18100662    -0.25300
H827        H  0.79487490  0.71043558  0.12606743     0.08600
H828        H  0.80254967  0.73035753  0.16175533     0.12200
H829        H  0.71305977  0.77270288  0.11707578     0.12100
H830        H  0.69388729  0.80468853  0.14550049     0.11900
H831        H  0.68480516  0.80596358  0.18189586     0.12400
H832        H  0.77256365  0.75035574  0.19087197     0.14400
C833        C  0.51080134  0.41321511  0.47425989    -0.05600
C834        C  0.53098747  0.42782271  0.45522705    -0.05600
C835        C  0.53356981  0.39738208  0.44184452    -0.23700
C836        C  0.51489013  0.35169910  0.44711168     0.18500
C837        C  0.49552486  0.33732985  0.46643844     0.15700
C838        C  0.49460069  0.36812567  0.47990913    -0.18800
C839        C  0.47519998  0.29185595  0.47177300    -0.20600
C840        C  0.47230538  0.26037233  0.45780533    -0.13100
C841        C  0.49067602  0.27373191  0.43841842     0.03500
C842        C  0.51323802  0.31969857  0.43323722    -0.25300
H843        H  0.54369447  0.46238611  0.45050920     0.08600
H844        H  0.54857320  0.40918164  0.42712563     0.12200
H845        H  0.47867453  0.35607868  0.49446772     0.12100
H846        H  0.46015856  0.28040832  0.48652532     0.11900
H847        H  0.45512010  0.22515243  0.46209878     0.12400
H848        H  0.52715373  0.33007611  0.41823594     0.14400
C849        C  0.39835159  0.92774343  0.30421794    -0.05600
C850        C  0.40651979  0.93272665  0.28334431    -0.05600
C851        C  0.37923051  0.89805165  0.27010976    -0.23700
C852        C  0.34324043  0.85788682  0.27753225     0.18500
C853        C  0.33722783  0.85112810  0.29858862     0.15700
C854        C  0.36506371  0.88581290  0.31174828    -0.18800
C855        C  0.30124819  0.81119465  0.30612749    -0.20600
C856        C  0.26945384  0.77988232  0.29298659    -0.13100
C857        C  0.27347025  0.78762990  0.27213485     0.03500
C858        C  0.31127316  0.82588965  0.26438077    -0.25300
H859        H  0.43191983  0.96452334  0.27713179     0.08600
H860        H  0.38470350  0.90366789  0.25402317     0.12200
H861        H  0.35860750  0.88125217  0.32782828     0.12100
H862        H  0.29624131  0.80540096  0.32222676     0.16700
H863        H  0.24019767  0.75087757  0.29917289     0.12400
H864        H  0.31403207  0.83226457  0.24827905     0.14400
C865        C  0.33626960  0.05423145  0.45937975    -0.05600
C866        C  0.34664601  0.09001744  0.47261541    -0.05600
C867        C  0.33646924  0.08165077  0.49303381    -0.23700
C868        C  0.31675842  0.03753013  0.50042950     0.18500
C869        C  0.30315274  0.00115460  0.48699475     0.15700
C870        C  0.31214724  0.00974598  0.46647420    -0.18800
C871        C  0.28459024  0.95713878  0.49449288    -0.20600
C872        C  0.28442547  0.94980394  0.51517503    -0.13100
C873        C  0.30207913  0.98641380  0.52841886     0.03500
C874        C  0.31470763  0.02965219  0.52109753    -0.25300
H875        H  0.36461872  0.12457036  0.46739774     0.08600
H876        H  0.34675039  0.10980809  0.50318523     0.12200
H877        H  0.30363260  0.98190550  0.45633917     0.12100
H878        H  0.27359121  0.92887092  0.48436869     0.11900
H879        H  0.27396945  0.91612042  0.52060086     0.12400
H880        H  0.32740358  0.05794691  0.53133957     0.14400
C881        C  0.72488909  0.01375534  0.96181069    -0.05600
C882        C  0.75573055  0.05882464  0.96637468    -0.05600
C883        C  0.76795756  0.07200453  0.98625926    -0.23700
C884        C  0.74944114  0.04027955  0.00180484     0.18500
C885        C  0.72260881  0.99414820  0.99709317     0.15700
C886        C  0.71090266  0.98110077  0.97707096    -0.18800
C887        C  0.70452709  0.96232361  0.01260256    -0.20600
C888        C  0.70851462  0.97646582  0.03249902    -0.13100
C889        C  0.73058806  0.02266508  0.03711141     0.03500
C890        C  0.75369116  0.05424711  0.02186650    -0.25300
H891        H  0.76802658  0.08445578  0.95476068     0.08600
H892        H  0.78939034  0.10739185  0.98955337     0.12200
H893        H  0.68792903  0.94607910  0.97364376     0.12100
H894        H  0.68458180  0.92675546  0.00927887     0.11900
H895        H  0.69106052  0.95125624  0.04403858     0.12400
H896        H  0.77147274  0.08987390  0.02533886     0.14400
C897        C  0.78363889  0.25230773  0.04995187    -0.05600
C898        C  0.77965026  0.24487925  0.02914503    -0.05600
C899        C  0.80940400  0.27769154  0.01590652    -0.23700
C900        C  0.84430580  0.31807601  0.02335614     0.18500
C901        C  0.84824670  0.32652700  0.04430215     0.15700
C902        C  0.81723265  0.29357107  0.05757900    -0.18800
C903        C  0.88438280  0.36672479  0.05149559    -0.20600
C904        C  0.91776967  0.39665048  0.03818425    -0.13100
C905        C  0.91495908  0.38707024  0.01748698     0.03500
C906        C  0.87685178  0.34875339  0.01017867    -0.25300
H907        H  0.75389311  0.21312679  0.02317052     0.08600
H908        H  0.80615430  0.27075718  0.99988243     0.12200
H909        H  0.82043610  0.29899971  0.07372234     0.12100
H910        H  0.88797890  0.37392096  0.06748811     0.11900
H911        H  0.94687279  0.42580576  0.04419990     0.12400
H912        H  0.87394463  0.34101021  0.99422358     0.14400
C913        C  0.55750179  0.13686056  0.20005001    -0.05600
C914        C  0.51516073  0.10419168  0.20718327    -0.05600
C915        C  0.50361295  0.10220938  0.22749279    -0.23700
C916        C  0.53448250  0.13244353  0.24132573     0.18500
C917        C  0.57669663  0.16662862  0.23442002     0.15700
C918        C  0.58790372  0.16897042  0.21369962    -0.18800
C919        C  0.60734073  0.19662432  0.24854377    -0.20600
C920        C  0.59671406  0.19199406  0.26923083    -0.13100
C921        C  0.55540780  0.15702955  0.27627366     0.03500
C922        C  0.52419152  0.12791827  0.26204051    -0.25300
H923        H  0.49128586  0.07903729  0.19703768     0.08600
H924        H  0.47102856  0.07594852  0.23249699     0.12200
H925        H  0.62091738  0.19383930  0.20847286     0.12100
H926        H  0.63986313  0.22315291  0.24364546     0.11900
H927        H  0.62135031  0.21499333  0.27978074     0.12400
H928        H  0.49194451  0.10110561  0.26712076     0.14400
C929        C  0.60465512  0.26150172  0.09400486    -0.05600
C930        C  0.60131544  0.29199697  0.10696716    -0.05600
C931        C  0.59908113  0.32894474  0.09901920    -0.23700
C932        C  0.60082729  0.33616426  0.07803519     0.18500
C933        C  0.60162435  0.30445707  0.06484452     0.15700
C934        C  0.60251541  0.26694647  0.07291042    -0.18800
C935        C  0.60438630  0.31224629  0.04386593    -0.20600
C936        C  0.60973346  0.35288264  0.03608164    -0.13100
C937        C  0.61166551  0.38578063  0.04920127     0.03500
C938        C  0.60472220  0.37593863  0.07008806    -0.25300
H939        H  0.60285073  0.28865221  0.12313869     0.08600
H940        H  0.59832107  0.35312174  0.10930092     0.12200
H941        H  0.60433375  0.24331637  0.06262357     0.12100
H942        H  0.60482386  0.28794310  0.03356341     0.11900
H943        H  0.61491592  0.35956738  0.02005497     0.12400
H944        H  0.60529551  0.40072901  0.08042426     0.14400
C945        C  0.65039879  0.89374724  0.11094466    -0.05600
C946        C  0.68252303  0.88144856  0.11607671    -0.05600
C947        C  0.68910947  0.85190794  0.10385225    -0.23700
C948        C  0.66430978  0.83500744  0.08605365     0.18500
C949        C  0.63134050  0.84658794  0.08091503     0.15700
C950        C  0.62442063  0.87569725  0.09348874    -0.18800
C951        C  0.60707819  0.83013195  0.06294079    -0.20600
C952        C  0.61533070  0.80235836  0.05017858    -0.13100
C953        C  0.64826105  0.79084751  0.05507805     0.03500
C954        C  0.67258872  0.80746558  0.07313023    -0.25300
H955        H  0.70395686  0.89638663  0.12901798     0.08600
H956        H  0.71485488  0.84373175  0.10789995     0.12200
H957        H  0.60080341  0.88657300  0.08906784     0.12100
H958        H  0.58171439  0.83876590  0.05874534     0.11900
H959        H  0.59573975  0.78962632  0.03656715     0.12400
H960        H  0.69783037  0.79863201  0.07730572     0.14400
C961        C  0.53676029  0.79362686  0.21460493    -0.05600
C962        C  0.51143201  0.77584318  0.19708256    -0.05600
C963        C  0.50108856  0.80277987  0.18481155    -0.23700
C964        C  0.51541993  0.84752201  0.19016551     0.18500
C965        C  0.53828779  0.86449991  0.20856461     0.15700
C966        C  0.54931744  0.83756165  0.22054173    -0.18800
C967        C  0.55176328  0.90887530  0.21414819    -0.20600
C968        C  0.54549570  0.93721338  0.20096842    -0.13100
C969        C  0.52633265  0.92170467  0.18195843     0.03500
C970        C  0.50983687  0.87639301  0.17690613    -0.25300
H971        H  0.50173143  0.74193915  0.19237551     0.08600
H972        H  0.48325672  0.78915060  0.17084409     0.12200
H973        H  0.56883265  0.85110034  0.23414680     0.12100
H974        H  0.56902259  0.92225938  0.22825911     0.11900
H975        H  0.55910686  0.97227691  0.20492448     0.12400
H976        H  0.49537007  0.86450734  0.16214457     0.14400
C977        C  0.05653773  0.75803941  0.28826001    -0.05600
C978        C  0.01171563  0.74333474  0.29361281    -0.05600
C979        C  0.99871996  0.73754394  0.31379603    -0.23700
C980        C  0.03029701  0.74585309  0.32888099     0.18500
C981        C  0.07613213  0.76485578  0.32372315     0.15700
C982        C  0.08908378  0.77165354  0.30343722    -0.18800
C983        C  0.10770938  0.77304308  0.33879683    -0.20600
C984        C  0.09354958  0.75882254  0.35849125    -0.13100
C985        C  0.04767880  0.73647446  0.36341902     0.03500
C986        C  0.01639901  0.73215784  0.34875087    -0.25300
H987        H  0.98603856  0.73286524  0.28220957     0.08600
H988        H  0.96353477  0.72357637  0.31750224     0.12200
H989        H  0.12386496  0.78356376  0.29950498     0.12100
H990        H  0.14304107  0.78803315  0.33515998     0.11900
H991        H  0.11831680  0.76299465  0.36960248     0.12400
H992        H  0.98099620  0.71558195  0.35247208     0.14400
C993        C  0.69159905  0.57905051  0.34118191    -0.05600
C994        C  0.67756319  0.56463746  0.36108569    -0.05600
C995        C  0.70448285  0.55579989  0.37416288    -0.23700
C996        C  0.74596976  0.56160636  0.36755327     0.18500
C997        C  0.75886945  0.57359731  0.34721576     0.15700
C998        C  0.73141188  0.58147980  0.33418679    -0.18800
C999        C  0.80049164  0.58054198  0.34046284    -0.20600
C1000       C  0.83043114  0.57854231  0.35399574    -0.13100
C1001       C  0.81888714  0.56839822  0.37435628     0.03500
C1002       C  0.77601103  0.55838668  0.38105095    -0.25300
H1003       H  0.64707992  0.56262845  0.36686592     0.08600
H1004       H  0.69386077  0.54650536  0.38965530     0.12200
H1005       H  0.74251246  0.59224850  0.31884073     0.12100
H1006       H  0.81079651  0.58972920  0.32492638     0.11900
H1007       H  0.86347445  0.58656709  0.34871155     0.12400
H1008       H  0.76738552  0.55126008  0.39686702     0.14400
C1009       C  0.79504979  0.38501363  0.42669126    -0.05600
C1010       C  0.76284732  0.35188360  0.43934072    -0.05600
C1011       C  0.72507047  0.31475171  0.43102896    -0.23700
C1012       C  0.71846322  0.31074884  0.40997951     0.18500
C1013       C  0.75156193  0.34241476  0.39707992     0.15700
C1014       C  0.78996707  0.37841735  0.40548620    -0.18800
C1015       C  0.74438425  0.33922258  0.37604881    -0.20600
C1016       C  0.70315802  0.30680130  0.36794494    -0.13100
C1017       C  0.66900759  0.27668829  0.38077327     0.03500
C1018       C  0.67805585  0.27748951  0.40168367    -0.25300
H1019       H  0.76568412  0.35577848  0.45554630     0.08600
H1020       H  0.69980389  0.29041687  0.44110549     0.12200
H1021       H  0.81466996  0.40305856  0.39530270     0.12100
H1022       H  0.76972485  0.36345192  0.36596739     0.11900
H1023       H  0.69707415  0.30713128  0.35195351     0.12400
H1024       H  0.65207442  0.25404296  0.41178866     0.14400
C1025       C  0.26607149  0.90839798  0.38904793    -0.05600
C1026       C  0.24230497  0.86707244  0.37913466    -0.05600
C1027       C  0.21171288  0.82857607  0.38976766    -0.23700
C1028       C  0.20467455  0.83069435  0.41051767     0.18500
C1029       C  0.22950927  0.87163179  0.42084522     0.15700
C1030       C  0.25977875  0.91020845  0.41003078    -0.18800
C1031       C  0.22301743  0.87335721  0.44172450    -0.20600
C1032       C  0.19062865  0.83526057  0.45211195    -0.13100
C1033       C  0.16426907  0.79518438  0.44167169     0.03500
C1034       C  0.17226293  0.79288871  0.42099137    -0.25300
H1035       H  0.24704922  0.86462958  0.36314499     0.08600
H1036       H  0.19348156  0.79714394  0.38174352     0.12200
H1037       H  0.27863298  0.94165387  0.41802266     0.12100
H1038       H  0.24195720  0.90451193  0.44986187     0.11900
H1039       H  0.18447963  0.83780557  0.46793746     0.12400
H1040       H  0.15182038  0.76190435  0.41286733     0.14400
C1041       C  0.13146187  0.64501821  0.52058135    -0.05600
C1042       C  0.17607658  0.65822094  0.51565601    -0.05600
C1043       C  0.21115293  0.68872389  0.52781080    -0.23700
C1044       C  0.20212957  0.70811959  0.54450776     0.18500
C1045       C  0.15712157  0.69399163  0.54983831     0.15700
C1046       C  0.12207112  0.66142570  0.53819741    -0.18800
C1047       C  0.14797142  0.71539799  0.56565318    -0.20600
C1048       C  0.18293830  0.75215965  0.57531072    -0.13100
C1049       C  0.22758273  0.76685078  0.56990252     0.03500
C1050       C  0.23717416  0.74374459  0.55498939    -0.25300
H1051       H  0.18382212  0.64667844  0.50182878     0.08600
H1052       H  0.24538395  0.69938459  0.52338212     0.12200
H1053       H  0.08771269  0.65248474  0.54160570     0.12100
H1054       H  0.11371776  0.70525946  0.56982887     0.11900
H1055       H  0.17515022  0.76989835  0.58670918     0.12400
H1056       H  0.27167290  0.75572674  0.55051955     0.14400
C1057       C  0.02646050  0.33086724  0.86159936    -0.05600
C1058       C  0.98054194  0.30958069  0.85693644    -0.05600
C1059       C  0.96601927  0.29652265  0.83733412    -0.23700
C1060       C  0.99730084  0.30520876  0.82205543     0.18500
C1061       C  0.04326879  0.32376902  0.82680296     0.15700
C1062       C  0.05756930  0.33615568  0.84665447    -0.18800
C1063       C  0.07444571  0.33277339  0.81137419    -0.20600
C1064       C  0.06085048  0.32803143  0.79132900    -0.13100
C1065       C  0.01587962  0.31384523  0.78655834     0.03500
C1066       C  0.98380687  0.29945061  0.80197573    -0.25300
H1067       H  0.95597141  0.30549914  0.86820777     0.08600
H1068       H  0.93067798  0.28217554  0.83394613     0.12200
H1069       H  0.09297898  0.35224798  0.85021305     0.12100
H1070       H  0.10968715  0.34628943  0.81473642     0.11900
H1071       H  0.08605148  0.33842505  0.77961723     0.12400
H1072       H  0.94891734  0.28779558  0.79844133     0.14400
C1073       C  0.79472267  0.44802753  0.72118310    -0.05600
C1074       C  0.76631717  0.45438900  0.70806147    -0.05600
C1075       C  0.73106113  0.45975262  0.71582338    -0.23700
C1076       C  0.72310222  0.45773639  0.73677761     0.18500
C1077       C  0.75277065  0.45385770  0.75013481     0.15700
C1078       C  0.78894471  0.45041761  0.74228332    -0.18800
C1079       C  0.74399117  0.45022790  0.77104523    -0.20600
C1080       C  0.70390241  0.44640259  0.77853328    -0.13100
C1081       C  0.67269537  0.44737001  0.76523694     0.03500
C1082       C  0.68419810  0.45606089  0.74449512    -0.25300
H1083       H  0.76988165  0.45290696  0.69191039     0.08600
H1084       H  0.70845178  0.46286134  0.70539321     0.12200
H1085       H  0.81094064  0.44647492  0.75279836     0.12100
H1086       H  0.76674137  0.44737203  0.78147958     0.11900
H1087       H  0.69605768  0.43969765  0.79441745     0.12400
H1088       H  0.66083960  0.45764328  0.73397802     0.14400
C1089       C  0.14160555  0.36540137  0.71073058    -0.05600
C1090       C  0.16917519  0.35251038  0.70046982    -0.05600
C1091       C  0.20128123  0.34649057  0.71107092    -0.23700
C1092       C  0.20670653  0.35400531  0.73200894     0.18500
C1093       C  0.18033368  0.36878865  0.74226175     0.15700
C1094       C  0.14779619  0.37397334  0.73159931    -0.18800
C1095       C  0.18658474  0.37763363  0.76304180    -0.20600
C1096       C  0.21853270  0.37158628  0.77367070    -0.13100
C1097       C  0.24425992  0.35580367  0.76380319     0.03500
C1098       C  0.23799962  0.34706001  0.74287921    -0.25300
H1099       H  0.16458999  0.34526770  0.68450121     0.08600
H1100       H  0.22138519  0.33530367  0.70294915     0.12200
H1101       H  0.12663174  0.38408394  0.73960948     0.12100
H1102       H  0.16696503  0.38956242  0.77106180     0.11900
H1103       H  0.22308806  0.37920632  0.78960728     0.12400
H1104       H  0.25816326  0.33572689  0.73490369     0.14400
C1105       C  0.79496224  0.27196857  0.77359798    -0.05600
C1106       C  0.80451987  0.27592975  0.79425733    -0.05600
C1107       C  0.77284326  0.24663402  0.80806640    -0.23700
C1108       C  0.73150974  0.21198821  0.80133274     0.18500
C1109       C  0.72066206  0.20862310  0.78062970     0.15700
C1110       C  0.75241129  0.23928010  0.76682215    -0.18800
C1111       C  0.67956814  0.17286143  0.77405838    -0.20600
C1112       C  0.65142464  0.13882477  0.78756820    -0.13100
C1113       C  0.66372775  0.14049853  0.80787344     0.03500
C1114       C  0.70255282  0.17866545  0.81480053    -0.25300
H1115       H  0.83727434  0.30083092  0.79962962     0.08600
H1116       H  0.78162093  0.24957882  0.82388733     0.12200
H1117       H  0.74528490  0.23584141  0.75081638     0.12100
H1118       H  0.67047687  0.16979271  0.75828305     0.11900
H1119       H  0.62174087  0.10979800  0.78185069     0.12400
H1120       H  0.71224464  0.18066216  0.83047882     0.14400
C1121       C  0.91572924  0.47274709  0.61417738    -0.05600
C1122       C  0.95025151  0.51473384  0.60750636    -0.05600
C1123       C  0.95495019  0.52692672  0.58720212    -0.23700
C1124       C  0.92541464  0.49722845  0.57285437     0.18500
C1125       C  0.88930600  0.45546709  0.57914742     0.15700
C1126       C  0.88439557  0.44340781  0.59992252    -0.18800
C1127       C  0.85999766  0.42624387  0.56437686    -0.20600
C1128       C  0.86710164  0.43789114  0.54372961    -0.13100
C1129       C  0.90393393  0.47879186  0.53737889     0.03500
C1130       C  0.93244043  0.50843304  0.55224919    -0.25300
H1131       H  0.97490737  0.53776324  0.61806358     0.08600
H1132       H  0.98268518  0.55915274  0.58264143     0.12200
H1133       H  0.85809455  0.41061149  0.60475424     0.12100
H1134       H  0.83197078  0.39408281  0.56875459     0.11900
H1135       H  0.84445411  0.41442385  0.53271513     0.12400
H1136       H  0.96069800  0.54041576  0.54777457     0.14400
C1137       C  0.13305869  0.51079557  0.63321876    -0.05600
C1138       C  0.12548432  0.50976345  0.61238365    -0.05600
C1139       C  0.15992106  0.51831560  0.59869150    -0.23700
C1140       C  0.20245677  0.52838463  0.60569786     0.18500
C1141       C  0.21138948  0.53381928  0.62661292     0.15700
C1142       C  0.17660864  0.52490886  0.64022399    -0.18800
C1143       C  0.25399119  0.54446187  0.63367912    -0.20600
C1144       C  0.28619119  0.54579826  0.62036262    -0.13100
C1145       C  0.27627948  0.53664624  0.59986138     0.03500
C1146       C  0.23503852  0.52964401  0.59240551    -0.25300
H1147       H  0.09207250  0.49874189  0.60670197     0.08600
H1148       H  0.15259606  0.51453954  0.58271829     0.12200
H1149       H  0.18262147  0.52587207  0.65629692     0.12100
H1150       H  0.26150933  0.54913276  0.64962605     0.11900
H1151       H  0.31772868  0.55077415  0.62630003     0.12400
H1152       H  0.22727155  0.52211652  0.57658208     0.14400
loop_ 
_geom_bond_atom_site_label_1 
_geom_bond_atom_site_label_2 
_geom_bond_distance 
_geom_bond_site_symmetry_2 
_ccdc_geom_bond_type 
O1           Mg3   2.097       .  S
O1           Mg9   2.134       .  S
O1           C36   1.237       .  S
C2           O15   1.237       .  S
C2           O39   1.273       .  A
C2           H41   1.081       .  S
Mg3          O32   2.143       .  S
Mg3          O47   2.337       .  S
Mg3          O43   2.162       .  S
Mg3          O14   2.298       .  S
O4          Mg46   2.123       .  S
O4          Mg29   2.133       .  S
O4           C25   1.235       .  S
O5           C36   1.268   1_455  A
O5          Mg29   2.283       .  S
C6            O8   1.283       .  A
C6           O20   1.274       .  A
C6         C1121   1.493       .  S
O7           C35   1.270       .  A
O7           Mg9   2.297       .  S
O8          Mg40   2.360       .  S
Mg9          O15   2.114       .  S
Mg9          O23   2.246       .  S
Mg9          O11   2.282       .  S
C10          O48   1.273       .  A
C10          O16   1.274       .  A
C10        C1137   1.476       .  S
O11          C18   1.273   1_655  A
H12          C25   1.081       .  S
C13          O27   1.241       .  S
C13          O28   1.279       .  A
C13          H38   1.081       .  S
O14          C37   1.272       .  A
O15         Mg29   2.140   1_655  S
O16         Mg46   2.298       .  S
C17          O30   1.273       .  A
C17          O22   1.257       .  A
C17        C1089   1.481       .  S
C18          O45   1.264       .  A
C18        C1065   1.468       .  S
Mg19         O26   2.162   1_455  S
Mg19         O27   2.162   1_455  S
Mg19         O20   2.280   1_455  S
Mg19         O21   2.308       .  S
Mg19         O48   2.291       .  S
O21          C25   1.270       .  A
O22         Mg29   2.228       .  S
O23          C42   1.270       .  A
O24          C44   1.294       .  A
O24         Mg40   2.447       .  S
O26         Mg40   2.167       .  S
O26          C37   1.238       .  S
O27         Mg46   2.196   1_655  S
O28         Mg40   2.337       .  S
Mg29         O45   2.213       .  S
O30         Mg46   2.363       .  S
H31          C36   1.081       .  S
O32         Mg40   2.161       .  S
O32          C35   1.236       .  S
H33          C35   1.081       .  S
H34          C37   1.081       .  S
O39         Mg46   2.320   1_655  S
C42          O47   1.276       .  A
C42        C1105   1.470       .  S
O43          C44   1.263       .  A
C44        C1073   1.496       .  S
O49         Mg51   2.102       .  S
O49         Mg57   2.134       .  S
O49          C84   1.236       .  S
C50          O63   1.238       .  S
C50          O87   1.274   1_655  A
C50          H89   1.081       .  S
Mg51         O80   2.138       .  S
Mg51         O95   2.337       .  S
Mg51         O91   2.160       .  S
Mg51         O62   2.303       .  S
O52         Mg94   2.116       .  S
O52         Mg77   2.133       .  S
O52          C73   1.238       .  S
O53          C84   1.267   1_455  A
O53         Mg77   2.278       .  S
C54          O56   1.284       .  A
C54          O68   1.277       .  A
C54        C1129   1.501       .  S
O55          C83   1.271       .  A
O55         Mg57   2.299       .  S
O56         Mg88   2.353       .  S
Mg57         O63   2.100       .  S
Mg57         O71   2.231       .  S
Mg57         O59   2.305       .  S
C58          O96   1.272       .  A
C58          O64   1.267       .  A
C58        C1041   1.468       .  S
O59          C66   1.275   1_655  A
H60          C73   1.081       .  S
C61          O75   1.239       .  S
C61          O76   1.277       .  A
C61          H86   1.081       .  S
O62          C85   1.273       .  A
O63         Mg77   2.138   1_655  S
O64         Mg94   2.285       .  S
C65          O78   1.271       .  A
C65          O70   1.256       .  A
C65        C1033   1.474       .  S
C66          O93   1.266       .  A
C66         C985   1.474       .  S
Mg67         O74   2.167   1_455  S
Mg67         O75   2.138   1_455  S
Mg67         O68   2.304   1_455  S
Mg67         O69   2.326       .  S
Mg67         O96   2.304       .  S
O69          C73   1.275       .  A
O70         Mg77   2.226       .  S
O71          C90   1.269       .  A
O72          C92   1.293       .  A
O72         Mg88   2.447       .  S
O74         Mg88   2.167       .  S
O74          C85   1.239       .  S
O75         Mg94   2.193   1_655  S
O76         Mg88   2.339       .  S
Mg77         O93   2.221       .  S
O78         Mg94   2.353       .  S
H79          C84   1.081       .  S
O80         Mg88   2.160       .  S
O80          C83   1.237       .  S
H81          C83   1.081       .  S
H82          C85   1.081       .  S
O87         Mg94   2.318       .  S
C90          O95   1.276       .  A
C90        C1001   1.468       .  S
O91          C92   1.262       .  A
C92        C1009   1.498       .  S
O97         Mg99   2.107       .  S
O97        Mg105   2.135       .  S
O97         C132   1.234       .  S
C98         O111   1.239       .  S
C98         O135   1.276       .  A
C98         H137   1.081       .  S
Mg99        O128   2.137       .  S
Mg99        O143   2.318       .  S
Mg99        O139   2.181       .  S
Mg99        O110   2.293       .  S
O100       Mg142   2.102   1_545  S
O100       Mg125   2.131       .  S
O100        C121   1.238   1_545  S
O101        C132   1.267       .  A
O101       Mg125   2.285       .  S
C102        O104   1.281       .  A
C102        O116   1.275       .  A
C102        C913   1.489       .  S
O103        C131   1.271       .  A
O103       Mg105   2.298       .  S
O104       Mg136   2.338       .  S
Mg105       O111   2.119       .  S
Mg105       O119   2.246       .  S
Mg105       O107   2.323       .  S
C106        O144   1.268       .  A
C106        O112   1.263       .  A
C106        C969   1.466       .  S
O107        C114   1.277       .  A
H108        C121   1.081       .  S
C109        O123   1.238       .  S
C109        O124   1.275       .  A
C109        H134   1.081       .  S
O110        C133   1.271       .  A
O111       Mg125   2.129       .  S
O112       Mg142   2.273       .  S
C113        O126   1.268       .  A
C113        O118   1.256       .  A
C113        C945   1.471       .  S
C114        O141   1.264       .  A
C114        C889   1.472       .  S
Mg115       O122   2.143       .  S
Mg115       O123   2.148       .  S
Mg115       O116   2.287       .  S
Mg115       O117   2.335       .  S
Mg115       O144   2.291   1_545  S
O117        C121   1.276   1_545  A
O118       Mg125   2.246   1_565  S
O119        C138   1.271       .  A
O120        C140   1.289       .  A
O120       Mg136   2.408       .  S
O122       Mg136   2.173       .  S
O122        C133   1.238       .  S
O123       Mg142   2.188   1_545  S
O124       Mg136   2.327       .  S
Mg125       O141   2.202       .  S
O126       Mg142   2.335       .  S
H127        C132   1.081       .  S
O128       Mg136   2.153       .  S
O128        C131   1.237       .  S
H129        C131   1.081       .  S
H130        C133   1.081       .  S
O135       Mg142   2.331   1_545  S
C138        O143   1.275       .  A
C138        C897   1.464       .  S
O139        C140   1.265       .  A
C140        C929   1.488       .  S
O145       Mg147   2.166       .  S
O145       Mg153   2.208       .  S
O145        C180   1.262       .  A
C146        O159   1.236       .  S
C146        O183   1.272       .  A
C146        H185   1.081       .  S
Mg147       O176   2.123       .  S
Mg147       O191   2.345       .  S
Mg147       O187   2.166       .  S
Mg147       O158   2.322       .  S
O148       Mg190   2.125       .  S
O148       Mg173   2.141       .  S
O148        C169   1.236       .  S
O149        C180   1.265       .  A
O149       Mg173   2.290       .  S
C150        O152   1.281       .  A
C150        O164   1.277       .  A
C150        C921   1.496       .  S
O151        C179   1.271       .  A
O151       Mg153   2.299       .  S
O152       Mg184   2.329       .  S
Mg153       O159   2.102       .  S
Mg153       O167   2.220       .  S
Mg153       O155   2.269       .  S
C154        O192   1.275   1_565  A
C154        O160   1.271       .  A
C154        C849   1.488       .  S
O155        C162   1.270       .  A
H156        C169   1.081   1_565  S
C157        O171   1.243       .  S
C157        O172   1.282       .  A
C157        H182   1.081       .  S
O158        C181   1.274       .  A
O159       Mg173   2.158       .  S
O160       Mg190   2.294   1_565  S
C161        O174   1.273       .  A
C161        O166   1.259       .  A
C161       C1025   1.485       .  S
C162        O189   1.266       .  A
C162        C865   1.467       .  S
Mg163       O170   2.171       .  S
Mg163       O171   2.143       .  S
Mg163       O164   2.314       .  S
Mg163       O165   2.318       .  S
Mg163       O192   2.313       .  S
O165        C169   1.273       .  A
O166       Mg173   2.236   1_565  S
O167        C186   1.268       .  A
O168        C188   1.293       .  A
O168       Mg184   2.448       .  S
O170       Mg184   2.133       .  S
O170        C181   1.238       .  S
O171       Mg190   2.200       .  S
O172       Mg184   2.355       .  S
Mg173       O189   2.214       .  S
O174       Mg190   2.339   1_565  S
H175        C180   1.081       .  S
O176       Mg184   2.153       .  S
O176        C179   1.238       .  S
H177        C179   1.081       .  S
H178        C181   1.081       .  S
O183       Mg190   2.311       .  S
C186        O191   1.277       .  A
C186        C841   1.473       .  S
O187        C188   1.262       .  A
C188       C1017   1.488       .  S
O193       Mg195   2.093       .  S
O193       Mg201   2.147       .  S
O193        C228   1.235       .  S
C194        O207   1.236       .  S
C194        O231   1.271       .  A
C194        H233   1.081       .  S
Mg195       O224   2.150       .  S
Mg195       O239   2.304       .  S
Mg195       O235   2.171       .  S
Mg195       O206   2.291       .  S
O196       Mg238   2.131       .  S
O196       Mg221   2.154       .  S
O196        C217   1.237       .  S
O197        C228   1.266       .  A
O197       Mg221   2.272       .  S
C198        O200   1.284       .  A
C198        O212   1.277       .  A
C198        C769   1.502       .  S
O199        C227   1.269       .  A
O199       Mg201   2.283       .  S
O200       Mg232   2.362       .  S
Mg201       O207   2.105       .  S
Mg201       O215   2.237       .  S
Mg201       O203   2.281       .  S
C202        O240   1.272       .  A
C202        O208   1.272       .  A
C202        C993   1.483       .  S
O203        C210   1.273       .  A
H204        C217   1.081       .  S
C205        O219   1.240       .  S
C205        O220   1.279       .  A
C205        H230   1.081       .  S
O206        C229   1.271       .  A
O207       Mg221   2.142       .  S
O208       Mg238   2.286       .  S
C209        O222   1.274       .  A
C209        O214   1.261       .  A
C209        C809   1.478       .  S
C210        O237   1.270       .  A
C210        C825   1.474       .  S
Mg211       O218   2.153       .  S
Mg211       O219   2.159       .  S
Mg211       O212   2.295       .  S
Mg211       O213   2.322       .  S
Mg211       O240   2.292       .  S
O213        C217   1.274       .  A
O214       Mg221   2.241       .  S
O215        C234   1.269       .  A
O216        C236   1.295       .  A
O216       Mg232   2.454       .  S
O218       Mg232   2.168       .  S
O218        C229   1.238       .  S
O219       Mg238   2.201       .  S
O220       Mg232   2.341       .  S
Mg221       O237   2.245       .  S
O222       Mg238   2.340       .  S
H223        C228   1.081       .  S
O224       Mg232   2.146       .  S
O224        C227   1.237       .  S
H225        C227   1.081       .  S
H226        C229   1.081       .  S
O231       Mg238   2.308       .  S
C234        O239   1.273       .  A
C234        C961   1.463       .  S
O235        C236   1.264       .  A
C236        C793   1.498       .  S
O241       Mg243   2.097       .  S
O241       Mg249   2.144       .  S
O241        C276   1.233       .  S
C242        O255   1.237       .  S
C242        O279   1.273       .  A
C242        H281   1.081       .  S
Mg243       O272   2.146       .  S
Mg243       O287   2.327       .  S
Mg243       O283   2.175       .  S
Mg243       O254   2.296       .  S
O244       Mg286   2.115       .  S
O244       Mg269   2.152       .  S
O244        C265   1.240       .  S
O245        C276   1.264       .  A
O245       Mg269   2.271       .  S
C246        O248   1.284       .  A
C246        O260   1.280       .  A
C246        C777   1.507       .  S
O247        C275   1.269       .  A
O247       Mg249   2.282       .  S
O248       Mg280   2.343       .  S
Mg249       O255   2.119       .  S
Mg249       O263   2.245       .  S
Mg249       O251   2.292       .  S
C250        O288   1.271       .  A
C250        O256   1.264       .  A
C250        C833   1.482       .  S
O251        C258   1.274       .  A
H252        C265   1.081       .  S
C253        O267   1.238       .  S
C253        O268   1.277       .  A
C253        H278   1.081       .  S
O254        C277   1.272       .  A
O255       Mg269   2.148       .  S
O256       Mg286   2.265       .  S
C257        O270   1.274       .  A
C257        O262   1.264       .  A
C257        C761   1.488       .  S
C258        O285   1.270       .  A
C258        C721   1.474       .  S
Mg259       O266   2.154       .  S
Mg259       O267   2.145       .  S
Mg259       O260   2.328       .  S
Mg259       O261   2.349       .  S
Mg259       O288   2.318       .  S
O261        C265   1.279       .  A
O262       Mg269   2.259       .  S
O263        C282   1.270       .  A
O264        C284   1.292       .  A
O264       Mg280   2.428       .  S
O266       Mg280   2.166       .  S
O266        C277   1.239       .  S
O267       Mg286   2.199       .  S
O268       Mg280   2.339       .  S
Mg269       O285   2.239       .  S
O270       Mg286   2.332       .  S
H271        C276   1.081       .  S
O272       Mg280   2.147       .  S
O272        C275   1.237       .  S
H273        C275   1.081       .  S
H274        C277   1.081       .  S
O279       Mg286   2.312       .  S
C282        O287   1.276       .  A
C282       C1145   1.467       .  S
O283        C284   1.264       .  A
C284        C745   1.484       .  S
O289       Mg291   2.097       .  S
O289       Mg297   2.130       .  S
O289        C324   1.236       .  S
C290        O303   1.238       .  S
C290        O327   1.274       .  A
C290        H329   1.081       .  S
Mg291       O320   2.140       .  S
Mg291       O335   2.363       .  S
Mg291       O331   2.170       .  S
Mg291       O302   2.310       .  S
O292       Mg334   2.110       .  S
O292       Mg317   2.119       .  S
O292        C313   1.236   1_455  S
O293        C324   1.267       .  A
O293       Mg317   2.280       .  S
C294        O296   1.283       .  A
C294        O308   1.276       .  A
C294        C681   1.489       .  S
O295        C323   1.271       .  A
O295       Mg297   2.302       .  S
O296       Mg328   2.346   1_554  S
Mg297       O303   2.108       .  S
Mg297       O311   2.230       .  S
Mg297       O299   2.307       .  S
C298        O336   1.275       .  A
C298        O304   1.268   1_554  A
C298        C905   1.482       .  S
O299        C306   1.274       .  A
H300        C313   1.081       .  S
C301        O315   1.239       .  S
C301        O316   1.277       .  A
C301        H326   1.081   1_556  S
O302        C325   1.274       .  A
O303       Mg317   2.132       .  S
O304       Mg334   2.263   1_655  S
C305        O318   1.271       .  A
C305        O310   1.257       .  A
C305        C713   1.487       .  S
C306        O333   1.261       .  A
C306       C1057   1.465       .  S
Mg307       O314   2.173       .  S
Mg307       O315   2.155       .  S
Mg307       O308   2.306   1_556  S
Mg307       O309   2.316   1_455  S
Mg307       O336   2.317   1_456  S
O309        C313   1.271       .  A
O310       Mg317   2.232   1_655  S
O311        C330   1.269       .  A
O312        C332   1.291       .  A
O312       Mg328   2.427       .  S
O314       Mg328   2.166       .  S
O314        C325   1.240       .  S
O315       Mg334   2.186       .  S
O316       Mg328   2.330       .  S
Mg317       O333   2.185       .  S
O318       Mg334   2.355   1_655  S
H319        C324   1.081       .  S
O320       Mg328   2.170       .  S
O320        C323   1.236       .  S
H321        C323   1.081       .  S
H322        C325   1.081       .  S
O327       Mg334   2.320       .  S
C330        O335   1.280       .  A
C330        C665   1.473       .  S
O331        C332   1.264       .  A
C332        C689   1.492       .  S
O337       Mg339   2.095       .  S
O337       Mg345   2.139       .  S
O337        C372   1.237       .  S
C338        O351   1.237       .  S
C338        O375   1.273       .  A
C338        H377   1.081       .  S
Mg339       O368   2.147       .  S
Mg339       O383   2.346       .  S
Mg339       O379   2.182       .  S
Mg339       O350   2.306       .  S
O340       Mg382   2.121       .  S
O340       Mg365   2.152       .  S
O340        C361   1.237   1_455  S
O341        C372   1.268       .  A
O341       Mg365   2.278       .  S
C342        O344   1.282       .  A
C342        O356   1.277       .  A
C342        C673   1.498       .  S
O343        C371   1.270       .  A
O343       Mg345   2.291       .  S
O344       Mg376   2.345       .  S
Mg345       O351   2.115       .  S
Mg345       O359   2.247       .  S
Mg345       O347   2.291       .  S
C346        O384   1.272   1_655  A
C346        O352   1.273       .  A
C346        C649   1.477       .  S
O347        C354   1.274       .  A
H348        C361   1.081       .  S
C349        O363   1.240       .  S
C349        O364   1.279       .  A
C349        H374   1.081       .  S
O350        C373   1.273       .  A
O351       Mg365   2.135       .  S
O352       Mg382   2.307   1_655  S
C353        O366   1.274       .  A
C353        O358   1.260   1_655  A
C353        C801   1.490       .  S
C354        O381   1.268       .  A
C354        C977   1.474       .  S
Mg355       O362   2.173       .  S
Mg355       O363   2.144       .  S
Mg355       O356   2.309       .  S
Mg355       O357   2.323       .  S
Mg355       O384   2.292       .  S
O357        C361   1.274   1_455  A
O358       Mg365   2.244       .  S
O359        C378   1.270       .  A
O360        C380   1.293       .  A
O360       Mg376   2.434       .  S
O362       Mg376   2.161       .  S
O362        C373   1.239       .  S
O363       Mg382   2.197       .  S
O364       Mg376   2.345       .  S
Mg365       O381   2.235       .  S
O366       Mg382   2.356   1_655  S
H367        C372   1.081       .  S
O368       Mg376   2.154       .  S
O368        C371   1.237       .  S
H369        C371   1.081       .  S
H370        C373   1.081       .  S
O375       Mg382   2.318       .  S
C378        O383   1.278       .  A
C378        C857   1.473       .  S
O379        C380   1.265       .  A
C380        C785   1.496       .  S
O385       Mg387   2.103       .  S
O385       Mg393   2.135       .  S
O385        C420   1.235       .  S
C386        O399   1.237       .  S
C386        O423   1.273       .  A
C386        H425   1.081       .  S
Mg387       O416   2.140       .  S
Mg387       O431   2.331       .  S
Mg387       O427   2.172       .  S
Mg387       O398   2.299       .  S
O388       Mg430   2.126       .  S
O388       Mg413   2.140       .  S
O388        C409   1.237       .  S
O389        C420   1.267   1_545  A
O389       Mg413   2.280       .  S
C390        O392   1.283       .  A
C390        O404   1.277       .  A
C390        C633   1.501       .  S
O391        C419   1.270       .  A
O391       Mg393   2.298       .  S
O392       Mg424   2.341       .  S
Mg393       O399   2.105       .  S
Mg393       O407   2.230       .  S
Mg393       O395   2.304       .  S
C394        O432   1.275       .  A
C394        O400   1.271       .  A
C394       C1113   1.483       .  S
O395        C402   1.275   1_565  A
H396        C409   1.081       .  S
C397        O411   1.239       .  S
C397        O412   1.277       .  A
C397        H422   1.081       .  S
O398        C421   1.273       .  A
O399       Mg413   2.139   1_565  S
O400       Mg430   2.270       .  S
C401        O414   1.270       .  A
C401        O406   1.257       .  A
C401        C705   1.478       .  S
C402        O429   1.265       .  A
C402        C881   1.472       .  S
Mg403       O410   2.160   1_545  S
Mg403       O411   2.157   1_545  S
Mg403       O404   2.303   1_545  S
Mg403       O405   2.316       .  S
Mg403       O432   2.308       .  S
O405        C409   1.273       .  A
O406       Mg413   2.225       .  S
O407        C426   1.269       .  A
O408        C428   1.290       .  A
O408       Mg424   2.422       .  S
O410       Mg424   2.161       .  S
O410        C421   1.239       .  S
O411       Mg430   2.179   1_565  S
O412       Mg424   2.331       .  S
Mg413       O429   2.212       .  S
O414       Mg430   2.339       .  S
H415        C420   1.081       .  S
O416       Mg424   2.158       .  S
O416        C419   1.236       .  S
H417        C419   1.081       .  S
H418        C421   1.081       .  S
O423       Mg430   2.317   1_565  S
C426        O431   1.276       .  A
C426        C617   1.464       .  S
O427        C428   1.264       .  A
C428        C697   1.491       .  S
O433       Mg435   2.095       .  S
O433       Mg441   2.157       .  S
O433        C468   1.234       .  S
C434        O447   1.235       .  S
C434        O471   1.268   1_565  A
C434        H473   1.081       .  S
Mg435       O464   2.105       .  S
Mg435       O479   2.316       .  S
Mg435       O475   2.200       .  S
Mg435       O446   2.341       .  S
O436       Mg478   2.138       .  S
O436       Mg461   2.118       .  S
O436        C457   1.235       .  S
O437        C468   1.265       .  A
O437       Mg461   2.269   1_565  S
C438        O440   1.279       .  A
C438        O452   1.276       .  A
C438        C625   1.496       .  S
O439        C467   1.270       .  A
O439       Mg441   2.293       .  S
O440       Mg472   2.327       .  S
Mg441       O447   2.128       .  S
Mg441       O455   2.249       .  S
Mg441       O443   2.287       .  S
C442        O480   1.272       .  A
C442        O448   1.272       .  A
C442        C601   1.482       .  S
O443        C450   1.273       .  A
H444        C457   1.081       .  S
C445        O459   1.243   1_565  S
C445        O460   1.282       .  A
C445        H470   1.081       .  S
O446        C469   1.278       .  A
O447       Mg461   2.150   1_565  S
O448       Mg478   2.291       .  S
C449        O462   1.279       .  A
C449        O454   1.267       .  A
C449        C753   1.488       .  S
C450        O477   1.267   1_565  A
C450        C873   1.464       .  S
Mg451       O458   2.150   1_545  S
Mg451       O459   2.153       .  S
Mg451       O452   2.303   1_545  S
Mg451       O453   2.311       .  S
Mg451       O480   2.283       .  S
O453        C457   1.271       .  A
O454       Mg461   2.249       .  S
O455        C474   1.271       .  A
O456        C476   1.284       .  A
O456       Mg472   2.430       .  S
O458       Mg472   2.134       .  S
O458        C469   1.240       .  S
O459       Mg478   2.206       .  S
O460       Mg472   2.346       .  S
Mg461       O477   2.206       .  S
O462       Mg478   2.343       .  S
H463        C468   1.081       .  S
O464       Mg472   2.166       .  S
O464        C467   1.236       .  S
H465        C467   1.081       .  S
H466        C469   1.081       .  S
O471       Mg478   2.288       .  S
C474        O479   1.275       .  A
C474       C1049   1.470       .  S
O475        C476   1.259       .  A
C476        C737   1.489       .  S
O481       Mg483   2.095       .  S
O481       Mg489   2.138       .  S
O481        C516   1.233       .  S
C482        O495   1.238       .  S
C482        O519   1.276       .  A
C482        H521   1.081       .  S
Mg483       O512   2.147       .  S
Mg483       O527   2.317       .  S
Mg483       O523   2.171       .  S
Mg483       O494   2.289       .  S
O484       Mg526   2.119       .  S
O484       Mg509   2.151       .  S
O484        C505   1.240       .  S
O485        C516   1.264       .  A
O485       Mg509   2.273       .  S
C486        O488   1.283       .  A
C486        O500   1.278       .  A
C486        C585   1.499       .  S
O487        C515   1.270       .  A
O487       Mg489   2.291       .  S
O488       Mg520   2.349   1_556  S
Mg489       O495   2.128       .  S
Mg489       O503   2.265       .  S
Mg489       O491   2.313       .  S
C490        O528   1.270       .  A
C490        O496   1.265   1_556  A
C490        C609   1.480       .  S
O491        C498   1.277       .  A
H492        C505   1.081       .  S
C493        O508   1.276       .  A
C493        H518   1.081       .  S
C493        O507   1.266   1_556  A
O494        C517   1.271       .  A
O495       Mg509   2.146       .  S
O496       Mg526   2.275       .  S
C497        O510   1.270       .  A
C497        O502   1.260       .  A
C497        C953   1.488       .  S
C498        O525   1.269       .  A
C498        C817   1.475       .  S
Mg499       O506   2.127       .  S
Mg499       O500   2.306   1_554  S
Mg499       O501   2.350       .  S
Mg499       O528   2.305   1_554  S
Mg499       O507   2.222       .  S
O501        C505   1.279       .  A
O502       Mg509   2.245       .  S
O503        C522   1.273       .  A
O504        C524   1.289       .  A
O504       Mg520   2.407       .  S
O506       Mg520   2.173       .  S
O506        C517   1.239       .  S
O507       Mg526   2.272       .  S
O508       Mg520   2.342   1_556  S
Mg509       O525   2.222       .  S
O510       Mg526   2.331       .  S
H511        C516   1.081       .  S
O512       Mg520   2.168       .  S
O512        C515   1.237       .  S
H513        C515   1.081       .  S
H514        C517   1.081       .  S
O519       Mg526   2.327       .  S
C522        O527   1.276       .  A
C522        C641   1.470       .  S
O523        C524   1.265       .  A
C524        C937   1.484       .  S
O529       Mg531   2.096       .  S
O529       Mg537   2.132       .  S
O529        C564   1.234       .  S
C530        O543   1.237       .  S
C530        O567   1.274       .  A
C530        H569   1.081       .  S
Mg531       O560   2.146       .  S
Mg531       O575   2.330       .  S
Mg531       O571   2.158       .  S
Mg531       O542   2.295       .  S
O532       Mg574   2.127       .  S
O532       Mg557   2.158       .  S
O532        C553   1.237       .  S
O533        C564   1.266       .  A
O533       Mg557   2.277       .  S
C534        O536   1.284       .  A
C534        O548   1.280       .  A
C534        C577   1.505       .  S
O535        C563   1.271       .  A
O535       Mg537   2.299       .  S
O536       Mg568   2.348       .  S
Mg537       O543   2.112       .  S
Mg537       O551   2.237       .  S
Mg537       O539   2.301       .  S
C538        O576   1.275       .  A
C538        O544   1.273       .  A
C538        C657   1.486       .  S
O539        C546   1.274       .  A
H540        C553   1.081       .  S
C541        O555   1.240       .  S
C541        O556   1.278       .  A
C541        H566   1.081       .  S
O542        C565   1.272       .  A
O543       Mg557   2.142       .  S
O544       Mg574   2.287       .  S
C545        O558   1.272       .  A
C545        O550   1.259       .  A
C545       C1097   1.489       .  S
C546        O573   1.267       .  A
C546        C729   1.473       .  S
Mg547       O554   2.157       .  S
Mg547       O555   2.160       .  S
Mg547       O548   2.321       .  S
Mg547       O549   2.320       .  S
Mg547       O576   2.305       .  S
O549        C553   1.273       .  A
O550       Mg557   2.235       .  S
O551        C570   1.270       .  A
O552        C572   1.291       .  A
O552       Mg568   2.432       .  S
O554       Mg568   2.156       .  S
O554        C565   1.238       .  S
O555       Mg574   2.190       .  S
O556       Mg568   2.337       .  S
Mg557       O573   2.227       .  S
O558       Mg574   2.344       .  S
H559        C564   1.081       .  S
O560       Mg568   2.168       .  S
O560        C563   1.237       .  S
H561        C563   1.081       .  S
H562        C565   1.081       .  S
O567       Mg574   2.321       .  S
C570        O575   1.275       .  A
C570        C593   1.466       .  S
O571        C572   1.262       .  A
C572       C1081   1.491       .  S
C577        C578   1.409       .  A
C577        C582   1.412       .  A
C578        H587   1.083       .  S
C578        C579   1.411       .  A
C579        H588   1.083       .  S
C579        C580   1.409       .  A
C580        C586   1.423       .  A
C580        C581   1.413       .  A
C581        C583   1.400       .  A
C581        C582   1.409       .  A
C582        H589   1.084       .  S
C583        H590   1.084       .  S
C583        C584   1.396       .  A
C584        H591   1.083       .  S
C584        C585   1.408       .  A
C585        C586   1.416       .  A
C586        H592   1.084       .  S
C593        C594   1.401       .  A
C593        C598   1.404       .  A
C594        H603   1.084       .  S
C594        C595   1.392       .  A
C595        H604   1.084       .  S
C595        C596   1.400       .  A
C596        C602   1.399       .  A
C596        C597   1.415       .  A
C597        C599   1.404       .  A
C597        C598   1.408       .  A
C598        H605   1.084       .  S
C599        H606   1.083       .  S
C599        C600   1.402       .  A
C600        H607   1.083       .  S
C600        C601   1.407       .  A
C601        C602   1.406       .  A
C602        H608   1.084       .  S
C609        C610   1.406       .  A
C609        C614   1.405       .  A
C610        H619   1.083       .  S
C610        C611   1.403       .  A
C611        H620   1.084       .  S
C611        C612   1.406       .  A
C612        C618   1.408       .  A
C612        C613   1.414       .  A
C613        C615   1.400       .  A
C613        C614   1.396       .  A
C614        H621   1.085   1_556  S
C615        H622   1.084       .  S
C615        C616   1.391       .  A
C616        H623   1.084       .  S
C616        C617   1.401       .  A
C617        C618   1.405       .  A
C618        H624   1.084       .  S
C625        C626   1.407       .  A
C625        C630   1.415       .  A
C626        H635   1.084   1_565  S
C626        C627   1.395       .  A
C627        H636   1.083   1_565  S
C627        C628   1.400       .  A
C628        C634   1.406       .  A
C628        C629   1.413       .  A
C629        C631   1.409       .  A
C629        C630   1.421       .  A
C630        H637   1.083       .  S
C631        H638   1.083       .  S
C631        C632   1.410       .  A
C632        H639   1.083       .  S
C632        C633   1.408       .  A
C633        C634   1.411       .  A
C634        H640   1.084       .  S
C641        C642   1.402       .  A
C641        C646   1.404       .  A
C642        H651   1.084       .  S
C642        C643   1.396       .  A
C643        H652   1.083       .  S
C643        C644   1.402       .  A
C644        C650   1.404       .  A
C644        C645   1.416       .  A
C645        C647   1.404       .  A
C645        C646   1.409       .  A
C646        H653   1.084       .  S
C647        H654   1.083       .  S
C647        C648   1.401       .  A
C648        H655   1.084       .  S
C648        C649   1.405       .  A
C649        C650   1.404       .  A
C650        H656   1.084       .  S
C657        C658   1.406       .  A
C657        C662   1.407       .  A
C658        H667   1.083       .  S
C658        C659   1.405       .  A
C659        H668   1.084       .  S
C659        C660   1.406       .  A
C660        C666   1.412       .  A
C660        C661   1.414       .  A
C661        C663   1.401       .  A
C661        C662   1.402       .  A
C662        H669   1.085       .  S
C663        H670   1.084       .  S
C663        C664   1.394       .  A
C664        H671   1.084       .  S
C664        C665   1.403       .  A
C665        C666   1.408       .  A
C666        H672   1.084       .  S
C673        C674   1.407       .  A
C673        C678   1.411       .  A
C674        H683   1.083       .  S
C674        C675   1.410       .  A
C675        H684   1.083       .  S
C675        C676   1.409       .  A
C676        C682   1.421       .  A
C676        C677   1.414       .  A
C677        C679   1.402       .  A
C677        C678   1.409       .  A
C678        H685   1.085       .  S
C679        H686   1.084       .  S
C679        C680   1.398       .  A
C680        H687   1.084       .  S
C680        C681   1.404       .  A
C681        C682   1.414       .  A
C682        H688   1.084       .  S
C689        C690   1.402       .  A
C689        C694   1.420       .  A
C690        H699   1.083       .  S
C690        C691   1.406       .  A
C691        H700   1.084       .  S
C691        C692   1.411       .  A
C692        C698   1.403       .  A
C692        C693   1.406       .  A
C693        C695   1.410       .  A
C693        C694   1.402       .  A
C694        H701   1.084       .  S
C695        H702   1.084       .  S
C695        C696   1.404       .  A
C696        H703   1.083       .  S
C696        C697   1.401       .  A
C697        C698   1.420       .  A
C698        H704   1.084       .  S
C705        C706   1.399       .  A
C705        C710   1.412       .  A
C706        H715   1.083       .  S
C706        C707   1.401       .  A
C707        H716   1.081       .  S
C707        C708   1.408       .  A
C708        C714   1.403       .  A
C708        C709   1.409       .  A
C709        C711   1.408       .  A
C709        C710   1.405       .  A
C710        H717   1.084       .  S
C711        H718   1.082       .  S
C711        C712   1.404       .  A
C712        H719   1.083       .  S
C712        C713   1.403       .  A
C713        C714   1.414       .  A
C714        H720   1.081       .  S
C721        C722   1.406       .  A
C721        C726   1.406       .  A
C722        H731   1.083       .  S
C722        C723   1.394       .  A
C723        H732   1.084       .  S
C723        C724   1.401       .  A
C724        C730   1.396       .  A
C724        C725   1.413       .  A
C725        C727   1.402       .  A
C725        C726   1.399       .  A
C726        H733   1.084       .  S
C727        H734   1.083       .  S
C727        C728   1.396       .  A
C728        H735   1.083       .  S
C728        C729   1.404       .  A
C729        C730   1.405       .  A
C730        H736   1.084       .  S
C737        C738   1.402       .  A
C737        C742   1.415       .  A
C738        H747   1.083       .  S
C738        C739   1.408       .  A
C739        H748   1.084       .  S
C739        C740   1.412       .  A
C740        C746   1.408       .  A
C740        C741   1.408       .  A
C741        C743   1.408       .  A
C741        C742   1.404       .  A
C742        H749   1.085       .  S
C743        H750   1.084       .  S
C743        C744   1.403       .  A
C744        H751   1.083       .  S
C744        C745   1.401       .  A
C745        C746   1.418       .  A
C746        H752   1.085       .  S
C753        C754   1.402       .  A
C753        C758   1.414       .  A
C754        H763   1.083       .  S
C754        C755   1.406       .  A
C755        H764   1.084       .  S
C755        C756   1.409       .  A
C756        C762   1.407       .  A
C756        C757   1.410       .  A
C757        C759   1.408       .  A
C757        C758   1.405       .  A
C758        H765   1.085       .  S
C759        H766   1.084       .  S
C759        C760   1.403       .  A
C760        H767   1.083       .  S
C760        C761   1.403       .  A
C761        C762   1.415       .  A
C762        H768   1.084       .  S
C769        C770   1.409       .  A
C769        C774   1.417       .  A
C770        H779   1.083       .  S
C770        C771   1.395       .  A
C771        H780   1.084       .  S
C771        C772   1.399       .  A
C772        C778   1.410       .  A
C772        C773   1.413       .  A
C773        C775   1.409       .  A
C773        C774   1.425       .  A
C774        H781   1.083       .  S
C775        H782   1.083       .  S
C775        C776   1.413       .  A
C776        H783   1.083       .  S
C776        C777   1.410       .  A
C777        C778   1.411       .  A
C778        H784   1.084       .  S
C785        C786   1.402       .  A
C785        C790   1.421       .  A
C786        H795   1.083       .  S
C786        C787   1.406       .  A
C787        H796   1.083       .  S
C787        C788   1.411       .  A
C788        C794   1.406       .  A
C788        C789   1.406       .  A
C789        C791   1.412       .  A
C789        C790   1.407       .  A
C790        H797   1.084       .  S
C791        H798   1.083       .  S
C791        C792   1.408       .  A
C792        H799   1.083       .  S
C792        C793   1.402       .  A
C793        C794   1.422       .  A
C794        H800   1.084       .  S
C801        C802   1.404       .  A
C801        C806   1.414       .  A
C802        H811   1.083       .  S
C802        C803   1.405       .  A
C803        H812   1.084       .  S
C803        C804   1.408       .  A
C804        C810   1.406       .  A
C804        C805   1.410       .  A
C805        C807   1.408       .  A
C805        C806   1.404       .  A
C806        H813   1.084       .  S
C807        H814   1.082       .  S
C807        C808   1.401       .  A
C808        H815   1.083       .  S
C808        C809   1.400       .  A
C809        C810   1.412       .  A
C810        H816   1.085       .  S
C817        C818   1.405       .  A
C817        C822   1.406       .  A
C818        H827   1.083       .  S
C818        C819   1.396       .  A
C819        H828   1.084       .  S
C819        C820   1.402       .  A
C820        C826   1.399       .  A
C820        C821   1.413       .  A
C821        C823   1.401       .  A
C821        C822   1.396       .  A
C822        H829   1.084       .  S
C823        H830   1.084       .  S
C823        C824   1.394       .  A
C824        H831   1.083       .  S
C824        C825   1.406       .  A
C825        C826   1.406       .  A
C826        H832   1.085       .  S
C833        C834   1.406       .  A
C833        C838   1.405       .  A
C834        H843   1.083       .  S
C834        C835   1.406       .  A
C835        H844   1.083       .  S
C835        C836   1.407       .  A
C836        C842   1.412       .  A
C836        C837   1.414       .  A
C837        C839   1.398       .  A
C837        C838   1.395       .  A
C838        H845   1.084       .  S
C839        H846   1.084       .  S
C839        C840   1.389       .  A
C840        H847   1.084       .  S
C840        C841   1.404       .  A
C841        C842   1.408       .  A
C842        H848   1.084       .  S
C849        C850   1.406       .  A
C849        C854   1.410       .  A
C850        H859   1.083       .  S
C850        C851   1.403       .  A
C851        H860   1.084       .  S
C851        C852   1.405       .  A
C852        C858   1.410       .  A
C852        C853   1.414       .  A
C853        C855   1.403       .  A
C853        C854   1.405       .  A
C854        H861   1.084       .  S
C855        H862   1.084       .  S
C855        C856   1.398       .  A
C856        H863   1.083       .  S
C856        C857   1.402       .  A
C857        C858   1.407       .  A
C858        H864   1.084       .  S
C865        C866   1.405       .  A
C865        C870   1.404       .  A
C866        H875   1.083       .  S
C866        C867   1.392       .  A
C867        H876   1.084       .  S
C867        C868   1.400       .  A
C868        C874   1.392       .  A
C868        C869   1.413       .  A
C869        C871   1.402   1_545  A
C869        C870   1.394       .  A
C870        H877   1.084   1_545  S
C871        H878   1.083       .  S
C871        C872   1.394       .  A
C872        H879   1.083       .  S
C872        C873   1.403       .  A
C873        C874   1.404   1_565  A
C874        H880   1.085       .  S
C881        C882   1.408       .  A
C881        C886   1.401   1_545  A
C882        H891   1.081       .  S
C882        C883   1.393       .  A
C883        H892   1.085       .  S
C883        C884   1.398   1_556  A
C884        C890   1.399       .  A
C884        C885   1.416   1_544  A
C885        C887   1.397   1_556  A
C885        C886   1.398       .  A
C886        H893   1.085       .  S
C887        H894   1.085       .  S
C887        C888   1.391       .  A
C888        H895   1.083       .  S
C888        C889   1.409   1_565  A
C889        C890   1.401       .  A
C890        H896   1.085       .  S
C897        C898   1.399       .  A
C897        C902   1.406       .  A
C898        H907   1.084       .  S
C898        C899   1.391       .  A
C899        H908   1.084   1_554  S
C899        C900   1.400       .  A
C900        C906   1.396       .  A
C900        C901   1.414       .  A
C901        C903   1.407       .  A
C901        C902   1.409       .  A
C902        H909   1.084       .  S
C903        H910   1.084       .  S
C903        C904   1.405       .  A
C904        H911   1.083       .  S
C904        C905   1.405       .  A
C905        C906   1.406       .  A
C906        H912   1.085   1_554  S
C913        C914   1.406       .  A
C913        C918   1.412       .  A
C914        H923   1.084       .  S
C914        C915   1.396       .  A
C915        H924   1.083       .  S
C915        C916   1.401       .  A
C916        C922   1.408       .  A
C916        C917   1.414       .  A
C917        C919   1.408       .  A
C917        C918   1.419       .  A
C918        H925   1.083       .  S
C919        H926   1.083       .  S
C919        C920   1.408       .  A
C920        H927   1.083       .  S
C920        C921   1.407       .  A
C921        C922   1.410       .  A
C922        H928   1.084       .  S
C929        C930   1.401       .  A
C929        C934   1.418       .  A
C930        H939   1.083       .  S
C930        C931   1.403       .  A
C931        H940   1.084       .  S
C931        C932   1.409       .  A
C932        C938   1.400       .  A
C932        C933   1.406       .  A
C933        C935   1.411       .  A
C933        C934   1.402       .  A
C934        H941   1.084       .  S
C935        H942   1.083       .  S
C935        C936   1.404       .  A
C936        H943   1.083       .  S
C936        C937   1.400       .  A
C937        C938   1.417       .  A
C938        H944   1.085       .  S
C945        C946   1.401       .  A
C945        C950   1.408       .  A
C946        H955   1.083       .  S
C946        C947   1.399       .  A
C947        H956   1.083       .  S
C947        C948   1.405       .  A
C948        C954   1.404       .  A
C948        C949   1.412       .  A
C949        C951   1.406       .  A
C949        C950   1.407       .  A
C950        H957   1.085       .  S
C951        H958   1.084       .  S
C951        C952   1.403       .  A
C952        H959   1.083       .  S
C952        C953   1.405       .  A
C953        C954   1.412       .  A
C954        H960   1.084       .  S
C961        C962   1.401       .  A
C961        C966   1.401       .  A
C962        H971   1.083       .  S
C962        C963   1.398       .  A
C963        H972   1.083       .  S
C963        C964   1.403       .  A
C964        C970   1.402       .  A
C964        C965   1.415       .  A
C965        C967   1.402       .  A
C965        C966   1.400       .  A
C966        H973   1.085       .  S
C967        H974   1.084       .  S
C967        C968   1.396       .  A
C968        H975   1.084       .  S
C968        C969   1.403       .  A
C969        C970   1.404       .  A
C970        H976   1.084       .  S
C977        C978   1.407       .  A
C977        C982   1.404       .  A
C978        H987   1.081   1_455  S
C978        C979   1.393   1_455  A
C979        H988   1.084       .  S
C979        C980   1.399   1_655  A
C980        C986   1.400       .  A
C980        C981   1.415       .  A
C981        C983   1.399       .  A
C981        C982   1.399       .  A
C982        H989   1.085       .  S
C983        H990   1.084       .  S
C983        C984   1.393       .  A
C984        H991   1.081       .  S
C984        C985   1.407       .  A
C985        C986   1.403       .  A
C986        H992   1.085   1_455  S
C993        C994   1.407       .  A
C993        C998   1.405       .  A
C994       H1003   1.083       .  S
C994        C995   1.404       .  A
C995       H1004   1.083       .  S
C995        C996   1.406       .  A
C996       C1002   1.410       .  A
C996        C997   1.414       .  A
C997        C999   1.400       .  A
C997        C998   1.399       .  A
C998       H1005   1.084       .  S
C999       H1006   1.083       .  S
C999       C1000   1.392       .  A
C1000      H1007   1.084       .  S
C1000      C1001   1.401       .  A
C1001      C1002   1.407       .  A
C1002      H1008   1.084       .  S
C1009      C1010   1.402       .  A
C1009      C1014   1.423       .  A
C1010      H1019   1.083       .  S
C1010      C1011   1.407       .  A
C1011      H1020   1.084       .  S
C1011      C1012   1.412       .  A
C1012      C1018   1.404       .  A
C1012      C1013   1.405       .  A
C1013      C1015   1.413       .  A
C1013      C1014   1.404       .  A
C1014      H1021   1.084       .  S
C1015      H1022   1.084       .  S
C1015      C1016   1.407       .  A
C1016      H1023   1.083       .  S
C1016      C1017   1.400       .  A
C1017      C1018   1.420       .  A
C1018      H1024   1.085       .  S
C1025      C1026   1.402       .  A
C1025      C1030   1.415       .  A
C1026      H1035   1.083       .  S
C1026      C1027   1.400       .  A
C1027      H1036   1.082       .  S
C1027      C1028   1.406       .  A
C1028      C1034   1.402       .  A
C1028      C1029   1.409       .  A
C1029      C1031   1.409       .  A
C1029      C1030   1.405       .  A
C1030      H1037   1.084       .  S
C1031      H1038   1.082       .  S
C1031      C1032   1.404       .  A
C1032      H1039   1.083       .  S
C1032      C1033   1.400       .  A
C1033      C1034   1.409       .  A
C1034      H1040   1.085       .  S
C1041      C1042   1.403       .  A
C1041      C1046   1.402       .  A
C1042      H1051   1.083       .  S
C1042      C1043   1.399       .  A
C1043      H1052   1.084       .  S
C1043      C1044   1.403       .  A
C1044      C1050   1.406       .  A
C1044      C1045   1.416       .  A
C1045      C1047   1.402       .  A
C1045      C1046   1.404       .  A
C1046      H1053   1.085       .  S
C1047      H1054   1.084       .  S
C1047      C1048   1.397       .  A
C1048      H1055   1.083       .  S
C1048      C1049   1.402       .  A
C1049      C1050   1.404       .  A
C1050      H1056   1.085       .  S
C1057      C1058   1.407   1_455  A
C1057      C1062   1.400       .  A
C1058      H1067   1.082       .  S
C1058      C1059   1.388       .  A
C1059      H1068   1.085       .  S
C1059      C1060   1.396       .  A
C1060      C1066   1.394       .  A
C1060      C1061   1.416   1_655  A
C1061      C1063   1.399       .  A
C1061      C1062   1.399       .  A
C1062      H1069   1.085       .  S
C1063      H1070   1.084       .  S
C1063      C1064   1.393       .  A
C1064      H1071   1.082       .  S
C1064      C1065   1.407       .  A
C1065      C1066   1.400   1_455  A
C1066      H1072   1.085       .  S
C1073      C1074   1.401       .  A
C1073      C1078   1.422       .  A
C1074      H1083   1.083       .  S
C1074      C1075   1.407       .  A
C1075      H1084   1.083       .  S
C1075      C1076   1.412       .  A
C1076      C1082   1.403       .  A
C1076      C1077   1.405       .  A
C1077      C1079   1.411       .  A
C1077      C1078   1.403       .  A
C1078      H1085   1.084       .  S
C1079      H1086   1.083       .  S
C1079      C1080   1.406       .  A
C1080      H1087   1.083       .  S
C1080      C1081   1.401       .  A
C1081      C1082   1.421       .  A
C1082      H1088   1.084       .  S
C1089      C1090   1.401       .  A
C1089      C1094   1.411       .  A
C1090      H1099   1.083       .  S
C1090      C1091   1.405       .  A
C1091      H1100   1.083       .  S
C1091      C1092   1.410       .  A
C1092      C1098   1.407       .  A
C1092      C1093   1.410       .  A
C1093      C1095   1.407       .  A
C1093      C1094   1.405       .  A
C1094      H1101   1.085       .  S
C1095      H1102   1.083       .  S
C1095      C1096   1.402       .  A
C1096      H1103   1.083       .  S
C1096      C1097   1.403       .  A
C1097      C1098   1.416       .  A
C1098      H1104   1.083       .  S
C1105      C1106   1.401       .  A
C1105      C1110   1.407       .  A
C1106      H1115   1.084       .  S
C1106      C1107   1.393       .  A
C1107      H1116   1.084       .  S
C1107      C1108   1.401       .  A
C1108      C1114   1.399       .  A
C1108      C1109   1.414       .  A
C1109      C1111   1.407       .  A
C1109      C1110   1.410       .  A
C1110      H1117   1.084       .  S
C1111      H1118   1.083       .  S
C1111      C1112   1.404       .  A
C1112      H1119   1.083       .  S
C1112      C1113   1.405       .  A
C1113      C1114   1.407       .  A
C1114      H1120   1.085       .  S
C1121      C1122   1.406       .  A
C1121      C1126   1.415       .  A
C1122      H1131   1.084       .  S
C1122      C1123   1.394       .  A
C1123      H1132   1.083       .  S
C1123      C1124   1.400       .  A
C1124      C1130   1.407       .  A
C1124      C1125   1.413       .  A
C1125      C1127   1.410       .  A
C1125      C1126   1.423       .  A
C1126      H1133   1.083       .  S
C1127      H1134   1.083       .  S
C1127      C1128   1.412       .  A
C1128      H1135   1.083       .  S
C1128      C1129   1.408       .  A
C1129      C1130   1.410       .  A
C1130      H1136   1.084       .  S
C1137      C1138   1.404       .  A
C1137      C1142   1.405       .  A
C1138      H1147   1.084       .  S
C1138      C1139   1.401       .  A
C1139      H1148   1.083       .  S
C1139      C1140   1.404       .  A
C1140      C1146   1.407       .  A
C1140      C1141   1.415       .  A
C1141      C1143   1.402       .  A
C1141      C1142   1.403       .  A
C1142      H1149   1.084       .  S
C1143      H1150   1.083       .  S
C1143      C1144   1.397       .  A
C1144      H1151   1.084       .  S
C1144      C1145   1.401       .  A
C1145      C1146   1.404       .  A
C1146      H1152   1.084       .  S
