geometry optimzed in LAMMPS
_audit_creation_date              2020-12-01 
_audit_creation_method            'lammps2cif' 
_symmetry_space_group_name_H-M    'P1' 
_symmetry_Int_Tables_number       1 
_symmetry_cell_setting            triclinic 
loop_ 
_symmetry_equiv_pos_as_xyz 
  x,y,z 
_cell_length_a                    41.12146809 
_cell_length_b                    41.113711027267 
_cell_length_c                    109.62872974161391 
_cell_angle_alpha                 89.87455129208563 
_cell_angle_beta                  89.95591514627372 
_cell_angle_gamma                 120.00100884411377 
loop_ 
_atom_site_label 
_atom_site_type_symbol 
_atom_site_fract_x 
_atom_site_fract_y 
_atom_site_fract_z 
_atom_site_charge 
Zr1        Zr  0.88800536  0.17800208  0.56341854     2.17500
O2          O  0.86912568  0.13964071  0.54502407    -0.50700
O3          O  0.95108678  0.18778663  0.56566866    -0.73900
O4          O  0.92133350  0.21583328  0.54582908    -0.80700
O5          O  0.84554684  0.09569574  0.58538463    -0.82500
O6          O  0.92064887  0.27084574  0.54688115    -0.78100
O7          O  0.87581920  0.11473836  0.56710133    -0.89700
O8          O  0.97817287  0.22776952  0.58160565    -0.75700
O9          O  0.92230596  0.24211711  0.56932650    -0.85200
O10         O  0.89828144  0.17797840  0.58477115    -0.84900
O11         O  0.84923906  0.20420549  0.55793278    -0.71600
O12         O  0.82657669  0.14460234  0.57243723    -0.83700
Zr13       Zr  0.83361641  0.23652114  0.59515903     2.26400
Zr14       Zr  0.88348735  0.26826907  0.56448003     2.06300
Zr15       Zr  0.83741573  0.14582808  0.59384862     2.10000
Zr16       Zr  0.93270411  0.24213790  0.59055181     1.78800
O17         O  0.77529104  0.09043328  0.59558684    -0.92500
O18         O  0.98577716  0.30354216  0.58540864    -0.40400
O19         O  0.87235818  0.21000402  0.60018544    -0.77000
O20         O  0.89489227  0.26988320  0.58594649    -0.95700
O21         O  0.82302009  0.23642521  0.57383119    -0.89000
O22         O  0.79871683  0.17222834  0.58919200    -0.91800
C23         C  0.97861673  0.20730883  0.57287203     1.01900
C24         C  0.86010770  0.09069560  0.57572168     1.14900
C25         C  0.93017739  0.24862259  0.54190724     1.05600
O26         O  0.93746941  0.33097803  0.56197791    -0.94000
O27         O  0.87200277  0.31723923  0.57209002    -0.89700
O28         O  0.84188397  0.29799147  0.59038945    -0.82900
C29         C  0.85664118  0.32177914  0.58164445     1.12300
O30         O  0.76927102  0.12989756  0.55043000    -0.96000
Zr31       Zr  0.78899739  0.17256958  0.56777809     1.88900
O32         O  0.76891850  0.22300194  0.59356306    -0.72600
O33         O  0.84907540  0.27549520  0.54761011    -0.51900
O34         O  0.77349494  0.20101021  0.55089978    -0.96500
O35         O  0.73225352  0.11231292  0.57139582    -0.53800
O36         O  0.74379605  0.18739433  0.57656242    -0.73100
C37         C  0.74230391  0.20550980  0.58583958     0.99200
O38         O  0.85436602  0.28027551  0.61233204    -0.61900
O39         O  0.86369130  0.12330379  0.60944475    -0.56700
O40         O  0.81244931  0.20478972  0.61477723    -0.93400
O41         O  0.81975592  0.15339002  0.61426156    -0.91800
O42         O  0.95291467  0.21860759  0.60762911    -0.92200
O43         O  0.95439569  0.28462040  0.60790374    -0.91000
C44         C  0.81197382  0.17620661  0.61970896     1.18100
H45         H  0.91200049  0.16523002  0.58672524     0.34000
H46         H  0.90786292  0.29554772  0.58872727     0.44900
H47         H  0.77519196  0.15918576  0.59359239     0.38400
H48         H  0.84586691  0.20299959  0.54917780     0.34900
H49         H  0.00808209  0.30286243  0.58846697     0.26700
H50         H  0.86435271  0.30223493  0.54521631     0.32600
H51         H  0.74577764  0.18898844  0.55109521     0.38500
H52         H  0.98060398  0.23144694  0.60687524     0.33000
H53         H  0.84638968  0.09582421  0.60986011     0.31800
H54         H  0.77556202  0.07912215  0.60354071     0.33500
H55         H  0.71131809  0.11603401  0.56874906     0.32500
H56         H  0.93252109  0.28717363  0.61023523     0.36500
H57         H  0.86360992  0.26949992  0.61859835     0.29200
H58         H  0.89273378  0.14288091  0.54148313     0.33500
H59         H  0.74555847  0.12785748  0.54749370     0.36300
H60         H  0.88707962  0.12618393  0.60584285     0.28900
H61         H  0.87754812  0.30283612  0.60948370     0.41800
H62         H  0.95036435  0.33677706  0.56996569     0.31800
H63         H  0.98794511  0.30338858  0.57641730     0.39500
H64         H  0.72961691  0.10976014  0.58037266     0.31300
H65         H  0.85194648  0.26155186  0.54073477     0.31400
H66         H  0.86082497  0.15258963  0.53925319     0.31600
Zr67       Zr  0.15428469  0.31298134  0.43994624     2.17500
O68         O  0.16739367  0.28586951  0.45779166    -0.50700
O69         O  0.09053269  0.26159945  0.43688812    -0.73900
O70         O  0.12335643  0.31836112  0.45809912    -0.80700
O71         O  0.20401263  0.27879156  0.41853778    -0.82500
O72         O  0.12695280  0.37551051  0.45804412    -0.78100
O73         O  0.16977327  0.26395965  0.43610478    -0.89700
O74         O  0.06495914  0.27748948  0.42120067    -0.75700
O75         O  0.12135191  0.34452323  0.43426629    -0.85200
O76         O  0.14561959  0.30535753  0.41846692    -0.84900
O77         O  0.19343378  0.37723236  0.44612893    -0.71600
O78         O  0.21622957  0.34148183  0.43136384    -0.83700
Zr79       Zr  0.21306541  0.43020456  0.40951970     2.26400
Zr80       Zr  0.16063999  0.40891934  0.43979697     2.06300
Zr81       Zr  0.20725506  0.33473525  0.40982315     2.10000
Zr82       Zr  0.11283880  0.33712395  0.41287435     1.78800
O83         O  0.26892990  0.34165362  0.40640724    -0.92500
O84         O  0.06028528  0.34684549  0.41735567    -0.40400
O85         O  0.17385014  0.36579304  0.40377555    -0.77000
O86         O  0.15109561  0.40210973  0.41819167    -0.95700
O87         O  0.22183957  0.43758696  0.43099356    -0.89000
O88         O  0.24653982  0.39907424  0.41528339    -0.91800
C89         C  0.06346871  0.25531579  0.42968291     1.01900
C90         C  0.18856327  0.25800652  0.42792646     1.14900
C91         C  0.11666913  0.34310909  0.46267212     1.05600
O92         O  0.10343715  0.41258743  0.44113107    -0.94000
O93         O  0.17459720  0.47112387  0.43310954    -0.89700
O94         O  0.20681573  0.48400477  0.41517244    -0.82900
C95         C  0.19170611  0.49239453  0.42394609     1.12300
O96         O  0.27148037  0.38021970  0.45412114    -0.96000
Zr97       Zr  0.25443883  0.40606490  0.43683930     1.88900
O98         O  0.27817946  0.47967791  0.41166533    -0.72600
O99         O  0.19248163  0.45152055  0.45668679    -0.51900
O100        O  0.27060138  0.44783107  0.45432367    -0.96500
O101        O  0.30926855  0.39932486  0.43315387    -0.53800
O102        O  0.30112856  0.46666918  0.42875257    -0.73100
C103        C  0.30393231  0.48738646  0.41960734     0.99200
O104        O  0.19554554  0.45718383  0.39256454    -0.61900
O105        O  0.17826966  0.28584002  0.39440058    -0.56700
O106        O  0.23312011  0.42042032  0.38958070    -0.93400
O107        O  0.22444764  0.36117672  0.38951685    -0.91800
O108        O  0.09385410  0.29363955  0.39580365    -0.92200
O109        O  0.09419243  0.35985766  0.39521203    -0.91000
C110        C  0.23270019  0.39232518  0.38432572     1.18100
H111        H  0.13168900  0.27912158  0.41624664     0.34000
H112        H  0.13880338  0.41554766  0.41544931     0.44900
H113        H  0.27036665  0.40969383  0.41106146     0.38400
H114        H  0.19625903  0.37841348  0.45490951     0.34900
H115        H  0.03781991  0.32378522  0.41443835     0.26700
H116        H  0.17274876  0.45485087  0.46068520     0.32600
H117        H  0.29773111  0.46604795  0.45337817     0.38500
H118        H  0.06606419  0.27961105  0.39611055     0.33000
H119        H  0.19737866  0.27862654  0.39253875     0.31800
H120        H  0.26479041  0.32284289  0.40007326     0.33500
H121        H  0.33082956  0.42295947  0.43617773     0.32500
H122        H  0.11808959  0.37694120  0.39099766     0.36500
H123        H  0.18395106  0.43712951  0.38635628     0.29200
H124        H  0.14251704  0.26677321  0.46099035     0.33500
H125        H  0.29600703  0.40068901  0.45703544     0.36300
H126        H  0.15804999  0.26376411  0.39869524     0.28900
H127        H  0.17409979  0.45955737  0.39555311     0.41800
H128        H  0.09829974  0.41710562  0.43266136     0.31800
H129        H  0.05796501  0.34532829  0.42635489     0.39500
H130        H  0.31254401  0.40066622  0.42419010     0.31300
H131        H  0.19801631  0.43671263  0.46260155     0.31400
H132        H  0.17763315  0.30602259  0.46399798     0.31600
Zr133      Zr  0.17059768  0.90771568  0.44012166     2.17500
O134        O  0.12788994  0.88873106  0.45750745    -0.50700
O135        O  0.18219508  0.97160142  0.43777056    -0.73900
O136        O  0.20497548  0.93802983  0.45854388    -0.80700
O137        O  0.09099072  0.86512724  0.41692858    -0.82500
O138        O  0.25944859  0.93614369  0.45855534    -0.78100
O139        O  0.10756259  0.89488522  0.43529615    -0.89700
O140        O  0.22585727  0.99956098  0.42275560    -0.75700
O141        O  0.23573927  0.94159415  0.43529944    -0.85200
O142        O  0.17455122  0.91969978  0.41879475    -0.84900
O143        O  0.19505557  0.86778402  0.44619923    -0.71600
O144        O  0.13844974  0.84705242  0.43068792    -0.83700
Zr145      Zr  0.23307666  0.85424957  0.40954203     2.26400
Zr146      Zr  0.26022707  0.90166222  0.44069474     2.06300
Zr147      Zr  0.14338595  0.85957541  0.40930492     2.10000
Zr148      Zr  0.23964304  0.95360632  0.41405538     1.78800
O149        O  0.08774635  0.79867664  0.40582257    -0.92500
O150        O  0.30119489  0.00481703  0.41994436    -0.40400
O151        O  0.20843756  0.89413235  0.40395361    -0.77000
O152        O  0.26570985  0.91472531  0.41923934    -0.95700
O153        O  0.22931603  0.84199303  0.43089612    -0.89000
O154        O  0.16803283  0.81976856  0.41456518    -0.91800
C155        C  0.20380612  0.99971492  0.43098027     1.01900
C156        C  0.08455525  0.87911342  0.42644490     1.14900
C157        C  0.23665979  0.94560462  0.46313097     1.05600
O158        O  0.32217489  0.95589398  0.44409269    -0.94000
O159        O  0.31014663  0.89067422  0.43370668    -0.89700
O160        O  0.29322488  0.86128819  0.41527701    -0.82900
C161        C  0.31577629  0.87555919  0.42430346     1.12300
O162        O  0.11807765  0.78711002  0.45232602    -0.96000
Zr163      Zr  0.16456387  0.80826311  0.43596662     1.88900
O164        O  0.21835214  0.78918036  0.41104292    -0.72600
O165        O  0.26578612  0.86590128  0.45753455    -0.51900
O166        O  0.18867471  0.79040150  0.45350698    -0.96500
O167        O  0.10469199  0.75296345  0.43086905    -0.53800
O168        O  0.18103421  0.76359038  0.42774821    -0.73100
C169        C  0.20008747  0.76236070  0.41868007     0.99200
O170        O  0.27980934  0.87560249  0.39316875    -0.61900
O171        O  0.12729932  0.89107262  0.39355340    -0.56700
O172        O  0.20419490  0.83468194  0.38943680    -0.93400
O173        O  0.15261354  0.84165912  0.38922098    -0.91800
O174        O  0.21949464  0.97817269  0.39726505    -0.92200
O175        O  0.28160002  0.97414580  0.39649410    -0.91000
C176        C  0.17602490  0.83404466  0.38413349     1.18100
H177        H  0.16250804  0.93393305  0.41661715     0.34000
H178        H  0.29178965  0.92760385  0.41685524     0.44900
H179        H  0.15551946  0.79661541  0.40998722     0.38400
H180        H  0.19230399  0.86375010  0.45492492     0.34900
H181        H  0.30381805  0.02703011  0.41551804     0.26700
H182        H  0.29127201  0.88239247  0.46083781     0.32600
H183        H  0.17746633  0.76283024  0.45285370     0.38500
H184        H  0.23475174  0.00582536  0.39805106     0.33000
H185        H  0.10032822  0.87387320  0.39188272     0.31800
H186        H  0.07467094  0.80298686  0.39896967     0.33500
H187        H  0.10679418  0.73136788  0.43388435     0.32500
H188        H  0.27721530  0.95058342  0.39260577     0.36500
H189        H  0.26981558  0.88422550  0.38646434     0.29200
H190        H  0.13277400  0.91242764  0.46142809     0.33500
H191        H  0.11466623  0.76266626  0.45510986     0.36300
H192        H  0.12816059  0.91297018  0.39761272     0.28900
H193        H  0.30141712  0.89918546  0.39620575     0.41800
H194        H  0.32933401  0.96907709  0.43613327     0.31800
H195        H  0.29836130  0.00974439  0.42860500     0.39500
H196        H  0.10467034  0.75087375  0.42187967     0.31300
H197        H  0.24867130  0.86558514  0.46394963     0.31400
H198        H  0.13750458  0.87714738  0.46334922     0.31600
Zr199      Zr  0.30079734  0.17400632  0.56360565     2.17500
O200        O  0.27849256  0.19276761  0.54581117    -0.50700
O201        O  0.24824758  0.11027820  0.56589060    -0.73900
O202        O  0.30545403  0.14296182  0.54549753    -0.80700
O203        O  0.26123152  0.21529464  0.58619200    -0.82500
O204        O  0.36251622  0.14638634  0.54557726    -0.78100
O205        O  0.24964319  0.18579722  0.56781253    -0.89700
O206        O  0.26239645  0.08307447  0.58154495    -0.75700
O207        O  0.33181471  0.14021091  0.56885012    -0.85200
O208        O  0.29148733  0.16220132  0.58492425    -0.84900
O209        O  0.36552931  0.21402834  0.55788623    -0.71600
O210        O  0.32848952  0.23491224  0.57289155    -0.83700
Zr211      Zr  0.41503411  0.22818844  0.59479304     2.26400
Zr212      Zr  0.39641441  0.18011760  0.56375798     2.06300
Zr213      Zr  0.31961010  0.22248450  0.59427983     2.10000
Zr214      Zr  0.32262144  0.12852336  0.59008854     1.78800
O215        O  0.32236808  0.28240253  0.59740550    -0.92500
O216        O  0.32875323  0.07463741  0.58425433    -0.40400
O217        O  0.35015493  0.18824055  0.60003006    -0.77000
O218        O  0.38782922  0.16754333  0.58521672    -0.95700
O219        O  0.42447560  0.23996795  0.57344447    -0.89000
O220        O  0.38445542  0.26245955  0.58940507    -0.91800
C221        C  0.24087855  0.08263654  0.57302798     1.01900
C222        C  0.24147478  0.20121447  0.57654262     1.14900
C223        C  0.33010849  0.13608489  0.54097145     1.05600
O224        O  0.40238706  0.12453677  0.56117448    -0.94000
O225        O  0.45720241  0.19186228  0.57107768    -0.89700
O226        O  0.46876311  0.22149990  0.58945106    -0.82900
C227        C  0.47755356  0.20721783  0.58052978     1.12300
O228        O  0.37173865  0.29336410  0.55036004    -0.96000
Zr229      Zr  0.39378707  0.27372881  0.56801931     1.88900
O230        O  0.46549561  0.29327613  0.59342272    -0.72600
O231        O  0.43938596  0.21452176  0.54711545    -0.51900
O232        O  0.43933115  0.29460584  0.55140246    -0.96500
O233        O  0.38635768  0.32766420  0.57268182    -0.53800
O234        O  0.45378633  0.31897842  0.57676351    -0.73100
C235        C  0.47393695  0.32024054  0.58585673     0.99200
O236        O  0.43848695  0.20634374  0.61158166    -0.61900
O237        O  0.27235410  0.19145256  0.61016172    -0.56700
O238        O  0.40486547  0.24833828  0.61465636    -0.93400
O239        O  0.34635184  0.24152227  0.61440800    -0.91800
O240        O  0.28011242  0.10716026  0.60750326    -0.92200
O241        O  0.34646744  0.10755474  0.60686602    -0.91000
C242        C  0.37709003  0.24915633  0.61971133     1.18100
H243        H  0.26511541  0.14799556  0.58698130     0.34000
H244        H  0.40099851  0.15480833  0.58778044     0.44900
H245        H  0.39472710  0.28566167  0.59394990     0.38400
H246        H  0.36735337  0.21799126  0.54914839     0.34900
H247        H  0.30827087  0.05309786  0.58868259     0.26700
H248        H  0.44626808  0.19657095  0.54363562     0.32600
H249        H  0.45319260  0.32237334  0.55190723     0.38500
H250        H  0.26510032  0.07953953  0.60657946     0.33000
H251        H  0.26117919  0.20768739  0.61133549     0.31800
H252        H  0.30380363  0.27739031  0.60394485     0.33500
H253        H  0.41009505  0.34977640  0.56993761     0.32500
H254        H  0.36227454  0.13057634  0.61164237     0.36500
H255        H  0.41873119  0.19690303  0.61794648     0.29200
H256        H  0.25937063  0.16901140  0.54200497     0.33500
H257        H  0.39092371  0.31990152  0.54879580     0.36300
H258        H  0.25215945  0.16837421  0.60634305     0.28900
H259        H  0.43752783  0.18323276  0.60852305     0.41800
H260        H  0.39655337  0.11240116  0.56931039     0.31800
H261        H  0.32104812  0.07002959  0.57558608     0.39500
H262        H  0.38717932  0.32957136  0.58168312     0.31300
H263        H  0.42362334  0.21700136  0.54077532     0.31400
H264        H  0.29985082  0.20349932  0.54001139     0.31600
Zr265      Zr  0.75123998  0.89331707  0.43895887     2.17500
O266        O  0.77715886  0.93395422  0.45669626    -0.50700
O267        O  0.80381397  0.88302801  0.43545713    -0.73900
O268        O  0.74796009  0.85710702  0.45696581    -0.80700
O269        O  0.78648479  0.97561980  0.41682211    -0.82500
O270        O  0.69150227  0.80280860  0.45713689    -0.78100
O271        O  0.79978640  0.95773677  0.43496247    -0.89700
O272        O  0.78884707  0.84259838  0.41953529    -0.75700
O273        O  0.72057617  0.82877916  0.43345433    -0.85200
O274        O  0.75842554  0.89206389  0.41744919    -0.84900
O275        O  0.68716213  0.86773220  0.44547979    -0.71600
O276        O  0.72182037  0.92607819  0.43049250    -0.83700
Zr277      Zr  0.63391280  0.83326625  0.40893674     2.26400
Zr278      Zr  0.65641278  0.80319946  0.43935496     2.06300
Zr279      Zr  0.72854071  0.92380806  0.40891836     2.10000
Zr280      Zr  0.72746144  0.82746621  0.41201902     1.78800
O281        O  0.72143646  0.97885326  0.40662572    -0.92500
O282        O  0.72121560  0.76694412  0.41720889    -0.40400
O283        O  0.69826254  0.85927739  0.40291228    -0.77000
O284        O  0.66274878  0.80016443  0.41770066    -0.95700
O285        O  0.62652098  0.83449256  0.43045227    -0.89000
O286        O  0.66417690  0.89785713  0.41457995    -0.91800
C287        C  0.81089429  0.86340545  0.42798053     1.01900
C288        C  0.80664176  0.98159769  0.42638107     1.14900
C289        C  0.72400287  0.82529412  0.46158410     1.05600
O290        O  0.65045897  0.74150566  0.44155281    -0.94000
O291        O  0.59532602  0.75360636  0.43263037    -0.89700
O292        O  0.58109447  0.77274490  0.41489659    -0.82900
C293        C  0.57367756  0.74909642  0.42359257     1.12300
O294        O  0.67920313  0.93968025  0.45390613    -0.96000
Zr295      Zr  0.65700923  0.89862145  0.43613756     1.88900
O296        O  0.58446853  0.84899227  0.41079896    -0.72600
O297        O  0.61528639  0.79448737  0.45657378    -0.51900
O298        O  0.61225719  0.86969238  0.45281115    -0.96500
O299        O  0.66264119  0.95983142  0.43260122    -0.53800
O300        O  0.59709746  0.88532525  0.42772730    -0.73100
C301        C  0.57672674  0.86744172  0.41856245     0.99200
O302        O  0.60588197  0.78794290  0.39230171    -0.61900
O303        O  0.77573530  0.94460964  0.39280321    -0.56700
O304        O  0.64382296  0.86309036  0.38889905    -0.93400
O305        O  0.70171955  0.91560326  0.38876859    -0.91800
O306        O  0.76809853  0.85004555  0.39416113    -0.92200
O307        O  0.70277398  0.78329911  0.39513249    -0.91000
C308        C  0.67102553  0.89172856  0.38362107     1.18100
H309        H  0.78456807  0.90472472  0.41507340     0.34000
H310        H  0.64959551  0.77433577  0.41507141     0.44900
H311        H  0.65332418  0.91082257  0.41036012     0.38400
H312        H  0.68624143  0.86955034  0.45425886     0.34900
H313        H  0.74110775  0.76588237  0.41243047     0.26700
H314        H  0.60818445  0.76930777  0.45982882     0.32600
H315        H  0.59663194  0.88179338  0.45260090     0.38500
H316        H  0.78127659  0.83542862  0.39410482     0.33000
H317        H  0.78390164  0.97146744  0.39151487     0.31800
H318        H  0.73767727  0.99269847  0.39960073     0.33500
H319        H  0.63932986  0.95762433  0.43603121     0.32500
H320        H  0.68635285  0.79038763  0.39063878     0.36500
H321        H  0.62459968  0.79716381  0.38561430     0.29200
H322        H  0.79660223  0.92882984  0.45996575     0.33500
H323        H  0.65783431  0.94263599  0.45659736     0.36300
H324        H  0.79770332  0.94471535  0.39653283     0.28900
H325        H  0.60575640  0.76499472  0.39513434     0.41800
H326        H  0.66204834  0.73832240  0.43407123     0.31800
H327        H  0.72982054  0.76961704  0.42577021     0.39500
H328        H  0.65998453  0.96133873  0.42367838     0.31300
H329        H  0.63183112  0.81214273  0.46290223     0.31400
H330        H  0.75682295  0.92357357  0.46287083     0.31600
Zr331      Zr  0.88557583  0.76179103  0.56406300     2.17500
O332        O  0.92629192  0.78416478  0.54616192    -0.50700
O333        O  0.87552330  0.81492195  0.56648402    -0.73900
O334        O  0.85039752  0.75815146  0.54584715    -0.80700
O335        O  0.96700614  0.79821728  0.58643177    -0.82500
O336        O  0.79501424  0.70273390  0.54620284    -0.78100
O337        O  0.94935489  0.81126663  0.56820666    -0.89700
O338        O  0.83513591  0.80175115  0.58237308    -0.75700
O339        O  0.82117891  0.73301897  0.56973216    -0.85200
O340        O  0.88496253  0.77063435  0.58549920    -0.84900
O341        O  0.85848649  0.69704497  0.55819573    -0.71600
O342        O  0.91732589  0.73182634  0.57288790    -0.83700
Zr343      Zr  0.82320192  0.64668208  0.59507586     2.26400
Zr344      Zr  0.79408144  0.66829142  0.56440245     2.06300
Zr345      Zr  0.91542894  0.73983519  0.59437280     2.10000
Zr346      Zr  0.82055186  0.74169483  0.59109040     1.78800
O347        O  0.96864039  0.72939891  0.59576100    -0.92500
O348        O  0.75959130  0.73546985  0.58683722    -0.40400
O349        O  0.85107402  0.71165298  0.60046955    -0.77000
O350        O  0.79154572  0.67645841  0.58595456    -0.95700
O351        O  0.82432387  0.63787295  0.57365037    -0.89000
O352        O  0.88773338  0.67485063  0.58939452    -0.91800
C353        C  0.85584342  0.82280603  0.57368275     1.01900
C354        C  0.97292485  0.81852469  0.57687931     1.14900
C355        C  0.81831511  0.73453007  0.54140577     1.05600
O356        O  0.73308119  0.66390590  0.56235046    -0.94000
O357        O  0.74370078  0.60793239  0.57154885    -0.89700
O358        O  0.76244061  0.59410199  0.58942597    -0.82900
C359        C  0.73888155  0.58658140  0.58073893     1.12300
O360        O  0.93191713  0.68950472  0.55067122    -0.96000
Zr361      Zr  0.88844677  0.66649777  0.56790357     1.88900
O362        O  0.83668413  0.59555543  0.59367702    -0.72600
O363        O  0.78371052  0.62564227  0.54754947    -0.51900
O364        O  0.86148827  0.62313023  0.55085904    -0.96500
O365        O  0.94852147  0.67023627  0.57203657    -0.53800
O366        O  0.87188193  0.60568720  0.57653772    -0.73100
C367        C  0.85380738  0.58618284  0.58587870     0.99200
O368        O  0.77686747  0.62113224  0.61159493    -0.61900
O369        O  0.93977216  0.78652531  0.61057477    -0.56700
O370        O  0.85206812  0.65730952  0.61524139    -0.93400
O371        O  0.90508450  0.71483333  0.61491030    -0.91800
O372        O  0.84540955  0.78511194  0.60817475    -0.92200
O373        O  0.77805922  0.71975632  0.60851250    -0.91000
C374        C  0.88066909  0.68486223  0.62035267     1.18100
H375        H  0.89810408  0.79696456  0.58762670     0.34000
H376        H  0.76575842  0.66407542  0.58865369     0.44900
H377        H  0.89998376  0.66356159  0.59378751     0.38400
H378        H  0.86015328  0.69538259  0.54943472     0.34900
H379        H  0.76092453  0.75817202  0.59043988     0.26700
H380        H  0.75839018  0.61856998  0.54447871     0.32600
H381        H  0.87308134  0.60706363  0.55128533     0.38500
H382        H  0.83052152  0.79800845  0.60825061     0.33000
H383        H  0.96678762  0.79457397  0.61116327     0.31800
H384        H  0.98493939  0.74703233  0.60213362     0.33500
H385        H  0.94576905  0.64651242  0.56880941     0.32500
H386        H  0.78493298  0.70328077  0.61308351     0.36500
H387        H  0.78633045  0.64036629  0.61809504     0.29200
H388        H  0.92194541  0.80362178  0.54243161     0.33500
H389        H  0.93492948  0.66815428  0.54801638     0.36300
H390        H  0.93917503  0.80860094  0.60722374     0.28900
H391        H  0.75451695  0.62167207  0.60850672     0.41800
H392        H  0.72811610  0.67114599  0.57044624     0.31800
H393        H  0.75962186  0.73932386  0.57791955     0.39500
H394        H  0.94941026  0.66776328  0.58099109     0.31300
H395        H  0.80102752  0.64153651  0.54100773     0.31400
H396        H  0.91535145  0.76296798  0.54033425     0.31600
Zr397      Zr  0.08309370  0.56246235  0.10673327     2.17500
O398        O  0.10669500  0.60462440  0.12418279    -0.50700
O399        O  0.13598151  0.55225916  0.10421596    -0.73900
O400        O  0.08019432  0.52741585  0.12494461    -0.80700
O401        O  0.11948078  0.64296986  0.08401330    -0.82500
O402        O  0.02443302  0.47235724  0.12479165    -0.78100
O403        O  0.13337852  0.62542573  0.10211433    -0.89700
O404        O  0.12127368  0.50983618  0.08892610    -0.75700
O405        O  0.05356223  0.49782858  0.10139875    -0.85200
O406        O  0.09130617  0.56083977  0.08529942    -0.84900
O407        O  0.01864985  0.53626587  0.11295653    -0.71600
O408        O  0.05352118  0.59440160  0.09777125    -0.83700
Zr409      Zr  0.96741613  0.50076494  0.07614844     2.26400
Zr410      Zr  0.98905889  0.47174643  0.10692534     2.06300
Zr411      Zr  0.06106363  0.59163595  0.07629041     2.10000
Zr412      Zr  0.06170531  0.49630552  0.08004323     1.78800
O413        O  0.05166379  0.64537955  0.07442427    -0.92500
O414        O  0.05303221  0.43429106  0.08436194    -0.40400
O415        O  0.03206994  0.52710219  0.07049325    -0.77000
O416        O  0.99660677  0.46855697  0.08535281    -0.95700
O417        O  0.95904885  0.50228649  0.09760313    -0.89000
O418        O  0.99650430  0.56534356  0.08165081    -0.91800
C419        C  0.14304482  0.53145737  0.09729451     1.01900
C420        C  0.14030673  0.64879233  0.09337660     1.14900
C421        C  0.05655989  0.49525296  0.12940819     1.05600
O422        O  0.98327091  0.41020916  0.10935739    -0.94000
O423        O  0.92832511  0.42193842  0.10000692    -0.89700
O424        O  0.91477556  0.44016198  0.08196387    -0.82900
C425        C  0.90708986  0.41693702  0.09080221     1.12300
O426        O  0.01467833  0.61155529  0.11981895    -0.96000
Zr427      Zr  0.98849821  0.56645649  0.10316634     1.88900
O428        O  0.91674585  0.51493249  0.07781102    -0.72600
O429        O  0.94701263  0.46213448  0.12395088    -0.51900
O430        O  0.94596031  0.53942454  0.12048079    -0.96500
O431        O  0.98984114  0.62548009  0.09912771    -0.53800
O432        O  0.92709912  0.54946094  0.09507633    -0.73100
C433        C  0.90745429  0.53171416  0.08576175     0.99200
O434        O  0.94228854  0.45558383  0.05940033    -0.61900
O435        O  0.10850558  0.61443822  0.06023829    -0.56700
O436        O  0.97701481  0.53013233  0.05602727    -0.93400
O437        O  0.03527533  0.58212379  0.05591396    -0.91800
O438        O  0.10670968  0.52185965  0.06332552    -0.92200
O439        O  0.04120994  0.45563101  0.06222826    -0.91000
C440        C  0.00458023  0.55840364  0.05072019     1.18100
H441        H  0.11758173  0.57358532  0.08307906     0.34000
H442        H  0.98378876  0.44267611  0.08278374     0.44900
H443        H  0.98542694  0.57784490  0.07728882     0.38400
H444        H  0.01727944  0.53818001  0.12171919     0.34900
H445        H  0.07472234  0.43431058  0.08042303     0.26700
H446        H  0.93959479  0.43670541  0.12704182     0.32600
H447        H  0.93152223  0.55278003  0.12067782     0.38500
H448        H  0.12152506  0.50895420  0.06394131     0.33000
H449        H  0.11788867  0.64176215  0.05968647     0.31800
H450        H  0.05613477  0.65611869  0.08273855     0.33500
H451        H  0.96687928  0.62260723  0.10308060     0.32500
H452        H  0.01387490  0.44609536  0.06171485     0.36500
H453        H  0.96248218  0.46471463  0.05318970     0.29200
H454        H  0.12689235  0.60102469  0.12766552     0.33500
H455        H  0.99331186  0.61291023  0.12342539     0.36300
H456        H  0.12973077  0.61245903  0.06365604     0.28900
H457        H  0.94114529  0.43242802  0.06253356     0.41800
H458        H  0.98543198  0.40251107  0.10098354     0.31800
H459        H  0.05787019  0.43450865  0.09321523     0.39500
H460        H  0.98493050  0.62528204  0.09028578     0.31300
H461        H  0.96325547  0.47930854  0.13042774     0.31400
H462        H  0.08621602  0.59367612  0.13030177     0.31600
Zr463      Zr  0.22233279  0.43155749  0.23067889     2.17500
O464        O  0.26414029  0.45748884  0.21312442    -0.50700
O465        O  0.20918380  0.48246309  0.23334004    -0.73900
O466        O  0.18672764  0.42756468  0.21252152    -0.80700
O467        O  0.30386074  0.46913133  0.25313628    -0.82500
O468        O  0.13222755  0.37122996  0.21278281    -0.78100
O469        O  0.28496039  0.48287372  0.23527785    -0.89700
O470        O  0.16776459  0.46692054  0.24905265    -0.75700
O471        O  0.15751305  0.39956015  0.23590306    -0.85200
O472        O  0.21932852  0.43903354  0.25209631    -0.84900
O473        O  0.19820816  0.36743157  0.22444782    -0.71600
O474        O  0.25606234  0.40392893  0.23967425    -0.83700
Zr475      Zr  0.16313248  0.31505225  0.26112974     2.26400
Zr476      Zr  0.13327428  0.33542157  0.23036854     2.06300
Zr477      Zr  0.25204960  0.41084068  0.26114754     2.10000
Zr478      Zr  0.15437701  0.40675520  0.25721085     1.78800
O479        O  0.30621635  0.40291019  0.26444748    -0.92500
O480        O  0.09383524  0.39875480  0.25107188    -0.40400
O481        O  0.18713882  0.37931176  0.26686012    -0.77000
O482        O  0.12903767  0.34210124  0.25191361    -0.95700
O483        O  0.16576498  0.30742415  0.23968906    -0.89000
O484        O  0.22796034  0.34661706  0.25574940    -0.91800
C485        C  0.18842559  0.48884771  0.24052824     1.01900
C486        C  0.30903652  0.49003331  0.24378205     1.14900
C487        C  0.15457894  0.40366925  0.20817260     1.05600
O488        O  0.07076855  0.32761798  0.22839939    -0.94000
O489        O  0.08504585  0.27355507  0.23743950    -0.89700
O490        O  0.10373858  0.26072995  0.25551456    -0.82900
C491        C  0.08050542  0.25240663  0.24668170     1.12300
O492        O  0.27705103  0.36654067  0.21805792    -0.96000
Zr493      Zr  0.23025925  0.33920184  0.23427127     1.88900
O494        O  0.17906685  0.26567483  0.25938426    -0.72600
O495        O  0.12533525  0.29468333  0.21316959    -0.51900
O496        O  0.20665023  0.29896324  0.21637334    -0.96500
O497        O  0.28992987  0.34248355  0.23879320    -0.53800
O498        O  0.21423857  0.27769858  0.24214410    -0.73100
C499        C  0.19644677  0.25731277  0.25136881     0.99200
O500        O  0.11722795  0.28915718  0.27773224    -0.61900
O501        O  0.27177001  0.45931406  0.27672165    -0.56700
O502        O  0.19239266  0.32457067  0.28115049    -0.93400
O503        O  0.24249140  0.38409487  0.28140340    -0.91800
O504        O  0.17451608  0.44738557  0.27503641    -0.92200
O505        O  0.10798638  0.38197741  0.27354706    -0.91000
C506        C  0.21978169  0.35269595  0.28649373     1.18100
H507        H  0.23116603  0.46522797  0.25433563     0.34000
H508        H  0.10312509  0.32838952  0.25446902     0.44900
H509        H  0.24094202  0.33611482  0.26015547     0.38400
H510        H  0.20043854  0.36635938  0.21568728     0.34900
H511        H  0.09205275  0.41907210  0.25529814     0.26700
H512        H  0.09960488  0.28623417  0.21019153     0.32600
H513        H  0.21589557  0.28099265  0.21725208     0.38500
H514        H  0.16269342  0.46312936  0.27409735     0.33000
H515        H  0.29869918  0.46805494  0.27809063     0.31800
H516        H  0.31907050  0.41879887  0.27160874     0.33500
H517        H  0.28714488  0.31861570  0.23569398     0.32500
H518        H  0.10802004  0.35910786  0.27636449     0.36500
H519        H  0.12615114  0.30906378  0.28400732     0.29200
H520        H  0.25877904  0.47650292  0.20959329     0.33500
H521        H  0.27995126  0.34569227  0.21479400     0.36300
H522        H  0.27149912  0.48074048  0.27268526     0.28900
H523        H  0.09423455  0.28819707  0.27454828     0.41800
H524        H  0.06469023  0.33296825  0.23662656     0.31800
H525        H  0.09690652  0.40606077  0.24235299     0.39500
H526        H  0.29058796  0.34034364  0.24776953     0.31300
H527        H  0.14198009  0.31167563  0.20668922     0.31400
H528        H  0.25447222  0.43695170  0.20705696     0.31600
Zr529      Zr  0.63669843  0.84630073  0.22948874     2.17500
O530        O  0.61463626  0.86760271  0.21227601    -0.50700
O531        O  0.58371451  0.78275642  0.23143525    -0.73900
O532        O  0.64059890  0.81677715  0.21084900    -0.77100
O533        O  0.59915292  0.88756147  0.25283492    -0.82500
O534        O  0.69568895  0.81613220  0.21109175    -0.78100
O535        O  0.58652683  0.85894602  0.23427781    -0.89700
O536        O  0.59742240  0.75407779  0.24673377    -0.75700
O537        O  0.66668719  0.81111830  0.23415714    -0.85200
O538        O  0.62789497  0.83346710  0.25077151    -0.84900
O539        O  0.70126627  0.88573609  0.22365210    -0.71600
O540        O  0.66539260  0.90654628  0.23920602    -0.83700
Zr541      Zr  0.75170086  0.89677017  0.26018598     2.26400
Zr542      Zr  0.73125237  0.85052558  0.22889890     2.06300
Zr543      Zr  0.65718979  0.89318608  0.26052069     2.10000
Zr544      Zr  0.65793534  0.79836183  0.25535230     1.78800
O545        O  0.66349916  0.95468672  0.26365652    -0.92500
O546        O  0.66407489  0.74496266  0.24894207    -0.40400
O547        O  0.68681753  0.85754842  0.26562800    -0.77000
O548        O  0.72312023  0.83653355  0.25028965    -0.95700
O549        O  0.76054172  0.90986048  0.23891765    -0.89000
O550        O  0.72205014  0.93239846  0.25551964    -0.91800
C551        C  0.57605542  0.75452825  0.23832148     1.01900
C552        C  0.57904596  0.87418721  0.24322337     1.14900
C553        C  0.66395810  0.80795284  0.20638304     1.05600
O554        O  0.74054492  0.79761002  0.22466515    -0.94000
O555        O  0.79091569  0.85868127  0.23585338    -0.89700
O556        O  0.80422011  0.88881055  0.25414969    -0.82900
C557        C  0.81187403  0.87373822  0.24519078     1.12300
O558        O  0.70617743  0.96616530  0.21759239    -0.96000
Zr559      Zr  0.73052771  0.94482397  0.23417367     1.88900
O560        O  0.80343537  0.96125101  0.25873189    -0.72600
O561        O  0.77255963  0.88875103  0.21240798    -0.51900
O562        O  0.77289896  0.96454338  0.21670087    -0.96500
O563        O  0.72545023  0.99941809  0.23998107    -0.53800
O564        O  0.79190516  0.98845204  0.24244334    -0.73100
C565        C  0.81232153  0.98863391  0.25130146     0.99200
O566        O  0.77624251  0.87555754  0.27683361    -0.61900
O567        O  0.60891828  0.86339266  0.27620200    -0.56700
O568        O  0.74207291  0.91520448  0.28042454    -0.93400
O569        O  0.68374973  0.90886239  0.28075461    -0.91800
O570        O  0.61408217  0.77501631  0.27241829    -0.92200
O571        O  0.68114513  0.77649102  0.27206721    -0.91000
C572        C  0.71447616  0.91545728  0.28583630     1.18100
H573        H  0.60155349  0.81953432  0.25290043     0.34000
H574        H  0.73590017  0.82318809  0.25258818     0.44900
H575        H  0.73297838  0.95529465  0.26024327     0.38400
H576        H  0.70285789  0.89020460  0.21495202     0.34900
H577        H  0.64301984  0.72300040  0.25302125     0.26700
H578        H  0.78625631  0.87567764  0.20998134     0.32600
H579        H  0.78905799  0.99206662  0.21760082     0.38500
H580        H  0.59988235  0.74740627  0.27136563     0.33000
H581        H  0.60034514  0.88157762  0.27786499     0.31800
H582        H  0.65007837  0.95222912  0.27140793     0.33500
H583        H  0.74731315  0.02107608  0.23608941     0.32500
H584        H  0.70554968  0.79855053  0.27427899     0.36500
H585        H  0.75555033  0.86336395  0.28284183     0.29200
H586        H  0.59494941  0.84440938  0.20834732     0.33500
H587        H  0.72643447  0.99183301  0.21549025     0.36300
H588        H  0.58736092  0.84209885  0.27210649     0.28900
H589        H  0.77829848  0.85428607  0.27350755     0.41800
H590        H  0.72148788  0.77685814  0.22973548     0.31800
H591        H  0.65718384  0.74157344  0.24019754     0.39500
H592        H  0.73108925  0.00295572  0.24880955     0.31300
H593        H  0.75571811  0.88498231  0.20544631     0.31400
H594        H  0.63576544  0.87836634  0.20638974     0.31600
Zr595      Zr  0.50172689  0.57298990  0.10698443     2.17500
O596        O  0.46054900  0.55450848  0.12474376    -0.50700
O597        O  0.51236239  0.63621831  0.10461386    -0.73900
O598        O  0.53748007  0.60545606  0.12494130    -0.80700
O599        O  0.42082410  0.52927135  0.08434668    -0.82500
O600        O  0.59273798  0.60508782  0.12472359    -0.78100
O601        O  0.43813733  0.55926636  0.10267026    -0.89700
O602        O  0.55408020  0.66365793  0.08905155    -0.75700
O603        O  0.56648167  0.60739764  0.10166068    -0.85200
O604        O  0.50385048  0.58377501  0.08559686    -0.84900
O605        O  0.52764812  0.53456401  0.11317692    -0.71600
O606        O  0.46932527  0.51181220  0.09796579    -0.83700
Zr607      Zr  0.56310066  0.51864829  0.07656416     2.26400
Zr608      Zr  0.59237548  0.56880068  0.10719299     2.06300
Zr609      Zr  0.47278537  0.52301003  0.07649470     2.10000
Zr610      Zr  0.56857215  0.61797503  0.08036997     1.78800
O611        O  0.41692580  0.46207747  0.07328143    -0.92500
O612        O  0.62930377  0.67192434  0.08547649    -0.40400
O613        O  0.53753285  0.55760574  0.07082625    -0.77000
O614        O  0.59584530  0.58007514  0.08565008    -0.95700
O615        O  0.56107258  0.50834858  0.09796707    -0.89000
O616        O  0.49837150  0.48412948  0.08199053    -0.91800
C617        C  0.53283238  0.66394818  0.09756360     1.01900
C618        C  0.41471531  0.54330330  0.09393355     1.14900
C619        C  0.56980043  0.61439066  0.12928831     1.05600
O620        O  0.65487787  0.62325994  0.10949954    -0.94000
O621        O  0.64127589  0.55605661  0.10031801    -0.89700
O622        O  0.62344152  0.52573644  0.08205631    -0.82900
C623        C  0.64631891  0.54020204  0.09099675     1.12300
O624        O  0.45354221  0.45645409  0.12069507    -0.96000
Zr625      Zr  0.49669290  0.47432996  0.10345498     1.88900
O626        O  0.55015674  0.45423800  0.07876346    -0.72600
O627        O  0.59884635  0.53494522  0.12444197    -0.51900
O628        O  0.52149211  0.45618317  0.12072860    -0.96500
O629        O  0.43643947  0.41906582  0.09879778    -0.53800
O630        O  0.51292464  0.42921154  0.09551885    -0.73100
C631        C  0.53214203  0.42775688  0.08654176     0.99200
O632        O  0.60775596  0.54074686  0.05962458    -0.61900
O633        O  0.45707949  0.55372000  0.06035862    -0.56700
O634        O  0.53271875  0.49577072  0.05684328    -0.93400
O635        O  0.48137223  0.50318469  0.05657417    -0.91800
O636        O  0.54511519  0.63695870  0.06295607    -0.92200
O637        O  0.61152130  0.63938588  0.06306415    -0.91000
C638        C  0.50437143  0.49481210  0.05155788     1.18100
H639        H  0.49133578  0.59758182  0.08343963     0.34000
H640        H  0.62172742  0.59293141  0.08304967     0.44900
H641        H  0.48567966  0.46052929  0.07765398     0.38400
H642        H  0.52551900  0.53121321  0.12193768     0.34900
H643        H  0.62944018  0.69351671  0.08140377     0.26700
H644        H  0.62429231  0.55203615  0.12766616     0.32600
H645        H  0.50763112  0.42837392  0.12067366     0.38500
H646        H  0.55288837  0.66359198  0.06448459     0.33000
H647        H  0.43129744  0.53489578  0.05783752     0.31800
H648        H  0.40200771  0.46690416  0.06721218     0.33500
H649        H  0.44021359  0.40961515  0.09093461     0.32500
H650        H  0.60844357  0.61605962  0.05937789     0.36500
H651        H  0.59753292  0.55120615  0.05358181     0.29200
H652        H  0.46533883  0.57833384  0.12854065     0.33500
H653        H  0.44677563  0.43036872  0.12277932     0.36300
H654        H  0.45426161  0.57359343  0.06446377     0.28900
H655        H  0.63040682  0.56321252  0.06276248     0.41800
H656        H  0.66001713  0.63674812  0.10161352     0.31800
H657        H  0.62758855  0.67615490  0.09428408     0.39500
H658        H  0.41973086  0.42920341  0.09679239     0.31300
H659        H  0.58165087  0.53481128  0.13079283     0.31400
H660        H  0.47106830  0.54369266  0.13054267     0.31600
Zr661      Zr  0.48945696  0.97965174  0.10620776     2.17500
O662        O  0.50481627  0.95439550  0.12404067    -0.50700
O663        O  0.42657952  0.92710362  0.10301021    -0.73900
O664        O  0.45655430  0.98283347  0.12415344    -0.80700
O665        O  0.53650636  0.94391129  0.08452635    -0.82500
O666        O  0.45720989  0.03854406  0.12357010    -0.78100
O667        O  0.50451152  0.93061273  0.10251989    -0.89700
O668        O  0.40108484  0.94172715  0.08698280    -0.75700
O669        O  0.45577788  0.01041571  0.10051554    -0.85200
O670        O  0.48058529  0.97178802  0.08472720    -0.84900
O671        O  0.52815540  0.04380573  0.11248001    -0.71600
O672        O  0.55137724  0.00838889  0.09759188    -0.83700
Zr673      Zr  0.54717520  0.09634379  0.07574838     2.26400
Zr674      Zr  0.49465253  0.07466702  0.10613236     2.06300
Zr675      Zr  0.54205119  0.00124085  0.07605671     2.10000
Zr676      Zr  0.44712113  0.00285177  0.07913887     1.78800
O677        O  0.60415708  0.00893816  0.07295133    -0.92500
O678        O  0.39228440  0.00776936  0.08463121    -0.40400
O679        O  0.50814723  0.03183525  0.06998803    -0.77000
O680        O  0.48509321  0.06782482  0.08450545    -0.95700
O681        O  0.55579736  0.10395020  0.09722050    -0.89000
O682        O  0.58102148  0.06566775  0.08151324    -0.91800
C683        C  0.39986476  0.91991660  0.09554200     1.01900
C684        C  0.52176941  0.92369465  0.09408099     1.14900
C685        C  0.44770073  0.00646552  0.12834512     1.05600
O686        O  0.44055382  0.08311044  0.10868211    -0.94000
O687        O  0.50731616  0.13617901  0.09920629    -0.89700
O688        O  0.54054905  0.14989658  0.08145139    -0.82900
C689        C  0.52479525  0.15779473  0.09015376     1.12300
O690        O  0.60706500  0.04909617  0.12057360    -0.96000
Zr691      Zr  0.58904877  0.07314693  0.10305640     1.88900
O692        O  0.61252015  0.14602625  0.07788755    -0.72600
O693        O  0.52750717  0.11537549  0.12331720    -0.51900
O694        O  0.60409327  0.11531716  0.12037155    -0.96500
O695        O  0.64457322  0.06801540  0.09884822    -0.53800
O696        O  0.63532704  0.13427503  0.09524899    -0.73100
C697        C  0.63816097  0.15447625  0.08595405     0.99200
O698        O  0.52897625  0.12286863  0.05885651    -0.61900
O699        O  0.51425564  0.95249776  0.06052287    -0.56700
O700        O  0.56737548  0.08661332  0.05577992    -0.93400
O701        O  0.55871635  0.02737130  0.05570720    -0.91800
O702        O  0.42859209  0.96176509  0.06142631    -0.92200
O703        O  0.42657544  0.02698199  0.06232337    -0.91000
C704        C  0.56673453  0.05842537  0.05049742     1.18100
H705        H  0.46697299  0.94555862  0.08248533     0.34000
H706        H  0.47258535  0.08109755  0.08180902     0.44900
H707        H  0.60484142  0.07639606  0.07728828     0.38400
H708        H  0.53091216  0.04494087  0.12125876     0.34900
H709        H  0.37092820  0.98616885  0.08056676     0.26700
H710        H  0.51145434  0.12588205  0.12577461     0.32600
H711        H  0.63159959  0.13237007  0.11991920     0.38500
H712        H  0.40086384  0.94661807  0.06192858     0.33000
H713        H  0.53344818  0.94523245  0.05887967     0.31800
H714        H  0.59985716  0.98772748  0.06763085     0.33500
H715        H  0.65390922  0.08018804  0.09080895     0.32500
H716        H  0.45014487  0.04629694  0.05843320     0.36500
H717        H  0.51807877  0.10301597  0.05256327     0.29200
H718        H  0.48039436  0.93461916  0.12732300     0.33500
H719        H  0.63302515  0.06877100  0.12259185     0.36300
H720        H  0.49361588  0.93037847  0.06467054     0.28900
H721        H  0.50697842  0.12426212  0.06184614     0.41800
H722        H  0.42488544  0.07117209  0.10140005     0.31800
H723        H  0.38825827  0.00147552  0.09342902     0.39500
H724        H  0.63464509  0.04095754  0.09728646     0.31300
H725        H  0.52490696  0.09819544  0.13006712     0.31400
H726        H  0.51439945  0.97471879  0.13018354     0.31600
Zr727      Zr  0.22432222  0.84463161  0.23113751     2.17500
O728        O  0.21003883  0.80440224  0.21330330    -0.50700
O729        O  0.28806851  0.85692224  0.23399301    -0.73900
O730        O  0.25612240  0.88123362  0.21305677    -0.80700
O731        O  0.17966666  0.76232003  0.25353622    -0.82500
O732        O  0.25360753  0.93533703  0.21334961    -0.78100
O733        O  0.21070589  0.78100471  0.23536315    -0.89700
O734        O  0.31334204  0.89751338  0.24986215    -0.75700
O735        O  0.25714982  0.90906570  0.23680813    -0.85200
O736        O  0.23315059  0.84550962  0.25261688    -0.84900
O737        O  0.18469798  0.86914672  0.22490136    -0.71600
O738        O  0.16242896  0.81072939  0.23977788    -0.83700
Zr739      Zr  0.16592446  0.90285966  0.26154023     2.26400
Zr740      Zr  0.21745493  0.93364161  0.23113736     2.06300
Zr741      Zr  0.17167117  0.81312890  0.26133095     2.10000
Zr742      Zr  0.26601048  0.90989049  0.25819874     1.78800
O743        O  0.10911673  0.75842527  0.26320789    -0.92500
O744        O  0.31952150  0.97147828  0.25360083    -0.40400
O745        O  0.20508307  0.87757348  0.26733655    -0.77000
O746        O  0.22779480  0.93664577  0.25273465    -0.95700
O747        O  0.15643560  0.90124033  0.24008805    -0.89000
O748        O  0.13238410  0.83824326  0.25592023    -0.91800
C749        C  0.31502233  0.87739936  0.24125924     1.01900
C750        C  0.19445382  0.75705678  0.24398472     1.14900
C751        C  0.26377926  0.91324165  0.20866411     1.05600
O752        O  0.27085579  0.99664923  0.22850639    -0.94000
O753        O  0.20535387  0.98265874  0.23822010    -0.89700
O754        O  0.17257780  0.96332135  0.25605953    -0.82900
C755        C  0.18835934  0.98703810  0.24734518     1.12300
O756        O  0.10390381  0.79321503  0.21732977    -0.96000
Zr757      Zr  0.12389273  0.83698634  0.23439166     1.88900
O758        O  0.10101239  0.88785952  0.25929371    -0.72600
O759        O  0.18284655  0.94041171  0.21421471    -0.51900
O760        O  0.10861758  0.86354328  0.21690988    -0.96500
O761        O  0.06885681  0.77576436  0.23849806    -0.53800
O762        O  0.07733950  0.85091268  0.24247955    -0.73100
C763        C  0.07498224  0.86946612  0.25147481     0.99200
O764        O  0.18450340  0.94663759  0.27865210    -0.61900
O765        O  0.19764763  0.79221941  0.27752503    -0.56700
O766        O  0.14494300  0.87229012  0.28138494    -0.93400
O767        O  0.15412283  0.82202202  0.28157705    -0.91800
O768        O  0.28512023  0.88534763  0.27529418    -0.92200
O769        O  0.28549117  0.95069543  0.27598511    -0.91000
C770        C  0.14547522  0.84466609  0.28668905     1.18100
H771        H  0.24709780  0.83321104  0.25485847     0.34000
H772        H  0.24024851  0.96243701  0.25538993     0.44900
H773        H  0.10867205  0.82515968  0.26020629     0.38400
H774        H  0.18179497  0.86743856  0.21613038     0.34900
H775        H  0.34103744  0.97162105  0.25770527     0.26700
H776        H  0.19847149  0.96687346  0.21156454     0.32600
H777        H  0.08137726  0.85431047  0.21766800     0.38500
H778        H  0.31289247  0.90045568  0.27534657     0.33000
H779        H  0.18002646  0.76489108  0.27832460     0.31800
H780        H  0.10944524  0.74685966  0.27110264     0.33500
H781        H  0.04735668  0.77758770  0.23525126     0.32500
H782        H  0.26186564  0.94782999  0.27936226     0.36500
H783        H  0.19593658  0.93753817  0.28473099     0.29200
H784        H  0.23468850  0.81059673  0.20979856     0.33500
H785        H  0.07970340  0.79032020  0.21453264     0.36300
H786        H  0.22081803  0.79422383  0.27405552     0.28900
H787        H  0.20615263  0.97034104  0.27566160     0.41800
H788        H  0.29043295  0.99749412  0.23395429     0.31800
H789        H  0.32436938  0.97053939  0.24479844     0.39500
H790        H  0.06537095  0.77459754  0.24745022     0.31300
H791        H  0.18492432  0.92559139  0.20746449     0.31400
H792        H  0.19892597  0.81407720  0.20730370     0.31600
Zr793      Zr  0.81788445  0.64444310  0.77365640     2.17500
O794        O  0.83217932  0.61695669  0.79114336    -0.50700
O795        O  0.75485937  0.59232944  0.77005544    -0.73900
O796        O  0.78590950  0.64758497  0.79187946    -0.80700
O797        O  0.86447488  0.60951118  0.75145915    -0.82500
O798        O  0.78738753  0.70373348  0.79206248    -0.78100
O799        O  0.83201279  0.59487473  0.76937320    -0.89700
O800        O  0.73008606  0.60724607  0.75389031    -0.75700
O801        O  0.78372319  0.67480367  0.76805826    -0.85200
O802        O  0.81036699  0.63822812  0.75212415    -0.84900
O803        O  0.85572075  0.70846603  0.78027607    -0.71600
O804        O  0.88039113  0.67456150  0.76540419    -0.83700
Zr805      Zr  0.87521480  0.76263207  0.74369082     2.26400
Zr806      Zr  0.82164405  0.73889962  0.77403766     2.06300
Zr807      Zr  0.87236104  0.66864643  0.74383630     2.10000
Zr808      Zr  0.77643011  0.66884592  0.74658000     1.78800
O809        O  0.93566589  0.67799064  0.74278702    -0.92500
O810        O  0.72157782  0.67421217  0.75160645    -0.40400
O811        O  0.83768013  0.69839949  0.73767771    -0.77000
O812        O  0.81309504  0.73343796  0.75234753    -0.95700
O813        O  0.88292576  0.76917693  0.76524015    -0.89000
O814        O  0.91009760  0.73302424  0.74948518    -0.91800
C815        C  0.72851584  0.58521255  0.76242371     1.01900
C816        C  0.84912561  0.58833049  0.76077513     1.14900
C817        C  0.77800878  0.67135558  0.79656308     1.05600
O818        O  0.76423553  0.74208687  0.77564851    -0.94000
O819        O  0.83433185  0.80058534  0.76735232    -0.89700
O820        O  0.86721425  0.81509468  0.74949548    -0.82900
C821        C  0.85140981  0.82242191  0.75830822     1.12300
O822        O  0.93694507  0.71158613  0.78700738    -0.96000
Zr823      Zr  0.91697108  0.73929339  0.77109576     1.88900
O824        O  0.93893905  0.81407065  0.74645905    -0.72600
O825        O  0.85246178  0.78097298  0.79114163    -0.51900
O826        O  0.92805136  0.77645424  0.78951609    -0.96500
O827        O  0.97640240  0.74142431  0.76715278    -0.53800
O828        O  0.96080091  0.80242611  0.76405340    -0.73100
C829        C  0.96360339  0.82303210  0.75487186     0.99200
O830        O  0.85746653  0.78938388  0.72672770    -0.61900
O831        O  0.84986807  0.62268071  0.72741424    -0.56700
O832        O  0.89664327  0.75382110  0.72373938    -0.93400
O833        O  0.88984929  0.69532581  0.72359512    -0.91800
O834        O  0.75999246  0.62908306  0.72862167    -0.92200
O835        O  0.75691494  0.69304685  0.72950105    -0.91000
C836        C  0.89740152  0.72630989  0.71844409     1.18100
H837        H  0.79707550  0.61216853  0.74967347     0.34000
H838        H  0.80039489  0.74656818  0.74970482     0.44900
H839        H  0.93408318  0.74448806  0.74534748     0.38400
H840        H  0.85824257  0.70922826  0.78906162     0.34900
H841        H  0.70072741  0.65377958  0.74697640     0.26700
H842        H  0.83397847  0.78795935  0.79405013     0.32600
H843        H  0.95481756  0.79624042  0.78905351     0.38500
H844        H  0.73219166  0.61489543  0.72856335     0.33000
H845        H  0.86768410  0.61311399  0.72713791     0.31800
H846        H  0.94222456  0.68161929  0.73400841     0.33500
H847        H  0.99542392  0.76378533  0.77162446     0.32500
H848        H  0.77708109  0.71954269  0.72862207     0.36500
H849        H  0.84622361  0.76934778  0.72050167     0.29200
H850        H  0.80752492  0.59767644  0.79443409     0.33500
H851        H  0.95791342  0.73295709  0.79128565     0.36300
H852        H  0.82608180  0.60129871  0.73047207     0.28900
H853        H  0.83578216  0.79141439  0.72967087     0.41800
H854        H  0.75467979  0.73883691  0.76719492     0.31800
H855        H  0.71594524  0.66615197  0.76023751     0.39500
H856        H  0.98210319  0.74839075  0.75844656     0.31300
H857        H  0.85336967  0.76485954  0.79770182     0.31400
H858        H  0.84263617  0.63695221  0.79739987     0.31600
Zr859      Zr  0.55090853  0.50406651  0.89844170     2.17500
O860        O  0.53197601  0.46182234  0.88099463    -0.50700
O861        O  0.61466790  0.51559362  0.90083832    -0.73900
O862        O  0.58199108  0.53865338  0.88004045    -0.80700
O863        O  0.50878988  0.42429153  0.92154693    -0.82500
O864        O  0.57972708  0.59290900  0.87993862    -0.78100
O865        O  0.53822904  0.44108538  0.90307399    -0.89700
O866        O  0.64229516  0.55885948  0.91590819    -0.75700
O867        O  0.58490264  0.56903130  0.90338332    -0.85200
O868        O  0.56198921  0.50713529  0.91982511    -0.84900
O869        O  0.51112704  0.52854416  0.89231253    -0.71600
O870        O  0.48998007  0.47160446  0.90782103    -0.83700
Zr871      Zr  0.49700036  0.56622611  0.92883217     2.26400
Zr872      Zr  0.54516244  0.59357653  0.89782166     2.06300
Zr873      Zr  0.50152238  0.47585189  0.92923302     2.10000
Zr874      Zr  0.59600558  0.57207433  0.92467805     1.78800
O875        O  0.43993743  0.42032653  0.93193241    -0.92500
O876        O  0.64859067  0.63375837  0.91956006    -0.40400
O877        O  0.53616191  0.54088517  0.93459756    -0.77000
O878        O  0.55782836  0.59880761  0.91929449    -0.95700
O879        O  0.48523896  0.56249121  0.90749574    -0.89000
O880        O  0.46225948  0.50114116  0.92392276    -0.91800
C881        C  0.64260369  0.53701699  0.90765672     1.01900
C882        C  0.52275948  0.41802648  0.91196316     1.14900
C883        C  0.58953362  0.57034436  0.87541673     1.05600
O884        O  0.59891631  0.65557562  0.89393884    -0.94000
O885        O  0.53409707  0.64356705  0.90459207    -0.89700
O886        O  0.50508827  0.62693029  0.92311894    -0.82900
C887        C  0.51916926  0.64936629  0.91401595     1.12300
O888        O  0.43046557  0.44958987  0.88675799    -0.96000
Zr889      Zr  0.45129581  0.49775105  0.90250363     1.88900
O890        O  0.43322824  0.55449533  0.92657131    -0.72600
O891        O  0.50872184  0.59869000  0.88117977    -0.51900
O892        O  0.43384183  0.51923437  0.88421795    -0.96500
O893        O  0.39516522  0.43924825  0.90835988    -0.53800
O894        O  0.40787678  0.51712371  0.90993179    -0.73100
C895        C  0.40695682  0.53710787  0.91874695     0.99200
O896        O  0.51677071  0.61083146  0.94574054    -0.61900
O897        O  0.53024055  0.45768148  0.94532418    -0.56700
O898        O  0.47545767  0.53665256  0.94877136    -0.93400
O899        O  0.48321949  0.48551699  0.94929913    -0.91800
O900        O  0.61814723  0.54955405  0.94152086    -0.92200
O901        O  0.61568647  0.61409645  0.94214917    -0.91000
C902        C  0.47515052  0.50883899  0.95423650     1.18100
H903        H  0.57606598  0.49493811  0.92202543     0.34000
H904        H  0.57075321  0.62485402  0.92167675     0.44900
H905        H  0.43905552  0.48893633  0.92850568     0.38400
H906        H  0.50733765  0.52597743  0.88358366     0.34900
H907        H  0.67057196  0.63453651  0.92354490     0.26700
H908        H  0.52346725  0.62521670  0.87850416     0.32600
H909        H  0.40643093  0.50904732  0.88497375     0.38500
H910        H  0.64585684  0.56531285  0.94123796     0.33000
H911        H  0.51293391  0.43045817  0.94656586     0.31800
H912        H  0.44354566  0.40577803  0.93846766     0.33500
H913        H  0.37420948  0.44006601  0.90420810     0.32500
H914        H  0.59223394  0.61232618  0.94524189     0.36500
H915        H  0.52742211  0.60134450  0.95196774     0.29200
H916        H  0.55565014  0.46499355  0.87753798     0.33500
H917        H  0.40599512  0.44570880  0.88384350     0.36300
H918        H  0.55293521  0.45933204  0.94157967     0.28900
H919        H  0.53899932  0.63397444  0.94269985     0.41800
H920        H  0.61104307  0.66422965  0.90199717     0.31800
H921        H  0.65285050  0.63244763  0.91072871     0.39500
H922        H  0.39107756  0.44180367  0.91711630     0.31300
H923        H  0.51110933  0.58421669  0.87437750     0.31400
H924        H  0.52276401  0.47296397  0.87484348     0.31600
Zr925      Zr  0.41599603  0.22383192  0.77226827     2.17500
O926        O  0.43875644  0.26493907  0.78999557    -0.50700
O927        O  0.46877241  0.21370519  0.76929996    -0.73900
O928        O  0.41443744  0.18809171  0.79011136    -0.80700
O929        O  0.45115166  0.30431715  0.74971146    -0.82500
O930        O  0.35835181  0.13337053  0.79049862    -0.78100
O931        O  0.46599103  0.28695317  0.76768293    -0.89700
O932        O  0.45345622  0.17177271  0.75381958    -0.75700
O933        O  0.38585802  0.15918142  0.76700772    -0.85200
O934        O  0.42298619  0.22196231  0.75077065    -0.84900
O935        O  0.35203581  0.19795912  0.77888845    -0.71600
O936        O  0.38604742  0.25581172  0.76360945    -0.83700
Zr937      Zr  0.29829525  0.16137026  0.74255950     2.26400
Zr938      Zr  0.32181293  0.13323432  0.77307640     2.06300
Zr939      Zr  0.39229485  0.25269771  0.74207462     2.10000
Zr940      Zr  0.39284319  0.15728024  0.74561221     1.78800
O941        O  0.38371503  0.30689553  0.73997208    -0.92500
O942        O  0.38619219  0.09627641  0.75024200    -0.40400
O943        O  0.36264296  0.18796363  0.73642948    -0.77000
O944        O  0.32795939  0.12918760  0.75144575    -0.95700
O945        O  0.29144523  0.16373319  0.76403507    -0.89000
O946        O  0.32792255  0.22626583  0.74783127    -0.91800
C947        C  0.47563296  0.19327218  0.76212973     1.01900
C948        C  0.47240422  0.31037160  0.75900175     1.14900
C949        C  0.39103504  0.15614911  0.79475622     1.05600
O950        O  0.31534004  0.07141276  0.77554668    -0.94000
O951        O  0.25943931  0.08436103  0.76707988    -0.89700
O952        O  0.24532494  0.10172346  0.74897477    -0.82900
C953        C  0.23757426  0.07928655  0.75805208     1.12300
O954        O  0.34587368  0.27163307  0.78649955    -0.96000
Zr955      Zr  0.32135754  0.22809142  0.76939194     1.88900
O956        O  0.24741674  0.17505458  0.74460195    -0.72600
O957        O  0.28235044  0.12615216  0.79063054    -0.51900
O958        O  0.27966240  0.20230213  0.78695410    -0.96500
O959        O  0.32548228  0.28838716  0.76527997    -0.53800
O960        O  0.25957806  0.21103373  0.76160809    -0.73100
C961        C  0.23893717  0.19245744  0.75256408     0.99200
O962        O  0.27290194  0.11586401  0.72591825    -0.61900
O963        O  0.43863047  0.27474025  0.72566860    -0.56700
O964        O  0.30581537  0.18981675  0.72244110    -0.93400
O965        O  0.36417364  0.24174326  0.72200648    -0.91800
O966        O  0.43619661  0.18165837  0.72842786    -0.92200
O967        O  0.37115630  0.11669303  0.72777930    -0.91000
C968        C  0.33308163  0.21800039  0.71701534     1.18100
H969        H  0.44913562  0.23469078  0.74838490     0.34000
H970        H  0.31487173  0.10321087  0.74898095     0.44900
H971        H  0.31651356  0.23860000  0.74354819     0.38400
H972        H  0.35134164  0.20018462  0.78765765     0.34900
H973        H  0.40881123  0.09732846  0.74665602     0.26700
H974        H  0.27544169  0.10122086  0.79406570     0.32600
H975        H  0.26344922  0.21374016  0.78661638     0.38500
H976        H  0.45044716  0.16812315  0.72877950     0.33000
H977        H  0.45021212  0.30242686  0.72563382     0.31800
H978        H  0.39713623  0.31931897  0.73234509     0.33500
H979        H  0.30187692  0.28577927  0.76858944     0.32500
H980        H  0.34354098  0.10171863  0.72872455     0.36500
H981        H  0.29370179  0.12404961  0.71996770     0.29200
H982        H  0.45966075  0.26211583  0.79326016     0.33500
H983        H  0.32530227  0.27599711  0.78909519     0.36300
H984        H  0.45871259  0.27007278  0.72859209     0.28900
H985        H  0.27014278  0.09223440  0.72927410     0.41800
H986        H  0.32019643  0.06484260  0.76732551     0.31800
H987        H  0.39007316  0.09662461  0.75916369     0.39500
H988        H  0.32291977  0.28932651  0.75633256     0.31300
H989        H  0.29945312  0.14427133  0.79675862     0.31400
H990        H  0.41852917  0.25292177  0.79616863     0.31600
Zr991      Zr  0.55515309  0.09309669  0.89652604     2.17500
O992        O  0.59806459  0.11594262  0.87916152    -0.50700
O993        O  0.54434867  0.14586897  0.89877835    -0.73900
O994        O  0.52185187  0.09069608  0.87805178    -0.80700
O995        O  0.63287990  0.12993587  0.92014525    -0.82500
O996        O  0.46741262  0.03435283  0.87769030    -0.78100
O997        O  0.61785565  0.14286680  0.90143970    -0.89700
O998        O  0.50107832  0.13065172  0.91389660    -0.75700
O999        O  0.48996416  0.06253576  0.90113538    -0.85200
O1000       O  0.55069762  0.10065012  0.91785613    -0.84900
O1001       O  0.53036828  0.02888456  0.89038633    -0.71600
O1002       O  0.58659422  0.06386064  0.90606876    -0.83700
Zr1003     Zr  0.49037725  0.97628826  0.92688660     2.26400
Zr1004     Zr  0.46511299  0.99832526  0.89560496     2.06300
Zr1005     Zr  0.58096263  0.07074280  0.92742963     2.10000
Zr1006     Zr  0.48545586  0.07000490  0.92236668     1.78800
O1007       O  0.63488573  0.06197527  0.92999672    -0.92500
O1008       O  0.42549601  0.06313213  0.91608817    -0.40400
O1009       O  0.51566433  0.04076407  0.93249112    -0.77000
O1010       O  0.45881993  0.00512522  0.91705687    -0.95700
O1011       O  0.49494605  0.96864429  0.90555749    -0.89000
O1012       O  0.55563615  0.00625805  0.92216818    -0.91800
C1013       C  0.52328131  0.15278620  0.90566267     1.01900
C1014       C  0.63999777  0.15029579  0.91054112     1.14900
C1015       C  0.49044085  0.06684325  0.87328363     1.05600
O1016       O  0.40346889  0.99138408  0.89219274    -0.94000
O1017       O  0.41506419  0.93680341  0.90199289    -0.89700
O1018       O  0.43067373  0.92345418  0.92053863    -0.82900
C1019       C  0.40886697  0.91550501  0.91130667     1.12300
O1020       O  0.60722949  0.02481272  0.88469061    -0.96000
Zr1021     Zr  0.55979357  0.99891216  0.90076201     1.88900
O1022       O  0.50467135  0.92572898  0.92550202    -0.72600
O1023       O  0.46032060  0.95820040  0.87857023    -0.51900
O1024       O  0.53615946  0.95817782  0.88298012    -0.96500
O1025       O  0.61792405  0.00031495  0.90631348    -0.53800
O1026       O  0.54115438  0.93676666  0.90863603    -0.73100
C1027       C  0.52216713  0.91665915  0.91775847     0.99200
O1028       O  0.44311363  0.94979989  0.94310107    -0.61900
O1029       O  0.59997978  0.11651627  0.94386004    -0.56700
O1030       O  0.51779102  0.98574102  0.94726169    -0.93400
O1031       O  0.56974067  0.04405275  0.94768578    -0.91800
O1032       O  0.50709269  0.11155077  0.93996592    -0.92200
O1033       O  0.44005100  0.04719814  0.93900652    -0.91000
C1034       C  0.54551293  0.01322265  0.95273378     1.18100
H1035       H  0.56297932  0.12684464  0.92012826     0.34000
H1036       H  0.43262785  0.99203395  0.91931467     0.44900
H1037       H  0.56767984  0.99521224  0.92680746     0.38400
H1038       H  0.53345765  0.02784057  0.88167214     0.34900
H1039       H  0.42504960  0.08494303  0.91971519     0.26700
H1040       H  0.43489455  0.94926291  0.87522020     0.32600
H1041       H  0.54657321  0.94113629  0.88370072     0.38500
H1042       H  0.49285242  0.12509582  0.93964680     0.33000
H1043       H  0.62729991  0.12656394  0.94482856     0.31800
H1044       H  0.65131173  0.08171696  0.93583938     0.33500
H1045       H  0.61700525  0.97885573  0.90191681     0.32500
H1046       H  0.43883067  0.02360265  0.94168670     0.36500
H1047       H  0.45158815  0.96929409  0.94950370     0.29200
H1048       H  0.59456431  0.13587792  0.87538266     0.33500
H1049       H  0.60894414  0.00335622  0.88135923     0.36300
H1050       H  0.59783583  0.13766046  0.94043088     0.28900
H1051       H  0.42047374  0.94922012  0.93975169     0.41800
H1052       H  0.39528658  0.99494910  0.90033146     0.31800
H1053       H  0.42817046  0.06836541  0.90721243     0.39500
H1054       H  0.61496236  0.99275881  0.91500171     0.31300
H1055       H  0.47753801  0.97543063  0.87224093     0.31400
H1056       H  0.58752655  0.09511348  0.87319563     0.31600
Zr1057     Zr  0.96576012  0.50574757  0.89640224     2.17500
O1058       O  0.94070537  0.52187215  0.87869474    -0.50700
O1059       O  0.91359699  0.44219158  0.89899381    -0.73900
O1060       O  0.97106869  0.47530108  0.87815330    -0.80700
O1061       O  0.92795319  0.55004377  0.91867540    -0.82500
O1062       O  0.02639738  0.47520226  0.87891590    -0.78100
O1063       O  0.91535916  0.51876035  0.90060687    -0.89700
O1064       O  0.92713334  0.41619797  0.91514514    -0.75700
O1065       O  0.99582816  0.47136312  0.90214658    -0.85200
O1066       O  0.95719547  0.49646354  0.91786256    -0.84900
O1067       O  0.03031649  0.54432458  0.89042460    -0.71600
O1068       O  0.99435947  0.56750345  0.90506295    -0.83700
Zr1069     Zr  0.08073571  0.56132029  0.92729938     2.26400
Zr1070     Zr  0.06052927  0.51012416  0.89682831     2.06300
Zr1071     Zr  0.98650556  0.55777484  0.92661695     2.10000
Zr1072     Zr  0.98731584  0.46216429  0.92351175     1.78800
O1073       O  0.99543848  0.62076593  0.92849858    -0.92500
O1074       O  0.99454687  0.40833202  0.91866571    -0.40400
O1075       O  0.01590053  0.52285621  0.93277007    -0.77000
O1076       O  0.05253804  0.49967331  0.91839936    -0.95700
O1077       O  0.08939984  0.57083995  0.90587554    -0.89000
O1078       O  0.05134718  0.59637684  0.92146970    -0.91800
C1079       C  0.90596251  0.41516750  0.90642057     1.01900
C1080       C  0.90765927  0.53493635  0.90921576     1.14900
C1081       C  0.99492061  0.46673144  0.87395216     1.05600
O1082       O  0.06724741  0.45469811  0.89517178    -0.94000
O1083       O  0.12210272  0.52343197  0.90382889    -0.89700
O1084       O  0.13430046  0.55453737  0.92192593    -0.82900
C1085       C  0.14291730  0.53984353  0.91309859     1.12300
O1086       O  0.03873246  0.62644223  0.88244096    -0.96000
Zr1087     Zr  0.05956313  0.60491777  0.89993642     1.88900
O1088       O  0.13245425  0.62551386  0.92496745    -0.72600
O1089       O  0.10239607  0.54199855  0.87969422    -0.51900
O1090       O  0.10236752  0.61970069  0.88274525    -0.96500
O1091       O  0.05372114  0.66003120  0.90405088    -0.53800
O1092       O  0.12077308  0.64983707  0.90794070    -0.73100
C1093       C  0.14130763  0.65150780  0.91697185     0.99200
O1094       O  0.10515123  0.54146383  0.94434738    -0.61900
O1095       O  0.93853052  0.53222230  0.94252161    -0.56700
O1096       O  0.07016795  0.58105787  0.94721390    -0.93400
O1097       O  0.01147598  0.57377771  0.94709313    -0.91800
O1098       O  0.94363613  0.44081693  0.94063101    -0.92200
O1099       O  0.01050187  0.44300816  0.94093982    -0.91000
C1100       C  0.04216391  0.58114818  0.95239588     1.18100
H1101       H  0.93086596  0.48277885  0.92002088     0.34000
H1102       H  0.06550446  0.48692205  0.92115176     0.44900
H1103       H  0.06226637  0.62009548  0.92573268     0.38400
H1104       H  0.03197417  0.54748960  0.88165762     0.34900
H1105       H  0.97300633  0.38678062  0.92272705     0.26700
H1106       H  0.11022093  0.52412329  0.87682038     0.32600
H1107       H  0.11936619  0.64723097  0.88310764     0.38500
H1108       H  0.93197401  0.41311673  0.94058537     0.33000
H1109       H  0.92876137  0.54983819  0.94305541     0.31800
H1110       H  0.97816287  0.61873428  0.93513155     0.33500
H1111       H  0.06621590  0.66968773  0.91200306     0.32500
H1112       H  0.02254276  0.46550011  0.94621837     0.36500
H1113       H  0.08435273  0.52967148  0.95033349     0.29200
H1114       H  0.92005810  0.49762390  0.87565898     0.33500
H1115       H  0.05986491  0.65173059  0.88041108     0.36300
H1116       H  0.91758407  0.50893964  0.93905442     0.28900
H1117       H  0.10726253  0.51996863  0.94126994     0.41800
H1118       H  0.05973962  0.44242788  0.90326825     0.31800
H1119       H  0.98887862  0.40392548  0.90984944     0.39500
H1120       H  0.02668758  0.64983675  0.90576405     0.31300
H1121       H  0.08604949  0.54229610  0.87312097     0.31400
H1122       H  0.96048273  0.53042171  0.87235261     0.31600
Zr1123     Zr  0.83765833  0.24217480  0.77210297     2.17500
O1124       O  0.79595603  0.22638665  0.78965405    -0.50700
O1125       O  0.85002185  0.30598997  0.76926812    -0.73900
O1126       O  0.87317379  0.27328703  0.79031204    -0.80700
O1127       O  0.75635766  0.19785803  0.74953454    -0.82500
O1128       O  0.92713626  0.27050239  0.79030478    -0.78100
O1129       O  0.77420911  0.22875826  0.76768631    -0.89700
O1130       O  0.89088247  0.33176616  0.75340055    -0.75700
O1131       O  0.90236608  0.27527352  0.76670128    -0.85200
O1132       O  0.83992569  0.25184359  0.75062806    -0.84900
O1133       O  0.86205005  0.20255957  0.77854294    -0.71600
O1134       O  0.80416721  0.18055476  0.76340750    -0.83700
Zr1135     Zr  0.89689757  0.18433284  0.74205702     2.26400
Zr1136     Zr  0.92676109  0.23554422  0.77245883     2.06300
Zr1137     Zr  0.80767864  0.19054947  0.74188784     2.10000
Zr1138     Zr  0.90469049  0.28488622  0.74532932     1.78800
O1139       O  0.75178858  0.12891947  0.73995064    -0.92500
O1140       O  0.96590681  0.33725056  0.75092141    -0.40400
O1141       O  0.87243013  0.22408505  0.73604682    -0.77000
O1142       O  0.93082367  0.24612525  0.75083991    -0.95700
O1143       O  0.89445647  0.17464921  0.76352134    -0.89000
O1144       O  0.83215893  0.15087713  0.74752990    -0.91800
C1145       C  0.87030265  0.33307884  0.76196186     1.01900
C1146       C  0.75060584  0.21246465  0.75902107     1.14900
C1147       C  0.90487925  0.28067708  0.79484134     1.05600
O1148       O  0.98834174  0.29114862  0.77492782    -0.94000
O1149       O  0.97502476  0.22169372  0.76591949    -0.89700
O1150       O  0.95693380  0.19086714  0.74776477    -0.82900
C1151       C  0.97977673  0.20528789  0.75671540     1.12300
O1152       O  0.78509969  0.12309876  0.78581107    -0.96000
Zr1153     Zr  0.83007363  0.14191208  0.76905603     1.88900
O1154       O  0.88275381  0.11975154  0.74457893    -0.72600
O1155       O  0.93592570  0.20307634  0.78957084    -0.51900
O1156       O  0.85485579  0.12498076  0.78662349    -0.96500
O1157       O  0.76976089  0.08614123  0.76469341    -0.53800
O1158       O  0.84535092  0.09599250  0.76134648    -0.73100
C1159       C  0.86428777  0.09374420  0.75244082     0.99200
O1160       O  0.94080473  0.20170248  0.72497345    -0.61900
O1161       O  0.78911284  0.21866130  0.72569093    -0.56700
O1162       O  0.86583619  0.16157586  0.72241283    -0.93400
O1163       O  0.81501820  0.16983019  0.72200371    -0.91800
O1164       O  0.88407982  0.30572258  0.72763542    -0.92200
O1165       O  0.94804426  0.30538223  0.72811179    -0.91000
C1166       C  0.83763173  0.16078840  0.71708743     1.18100
H1167       H  0.82778609  0.26590376  0.74833684     0.34000
H1168       H  0.95670734  0.25839484  0.74824805     0.44900
H1169       H  0.81919524  0.12721038  0.74324539     0.38400
H1170       H  0.86001141  0.19951644  0.78731704     0.34900
H1171       H  0.96793904  0.35904638  0.74638251     0.26700
H1172       H  0.96097276  0.22134299  0.79282613     0.32600
H1173       H  0.84216689  0.09720833  0.78645747     0.38500
H1174       H  0.89966317  0.33346612  0.72771954     0.33000
H1175       H  0.76156767  0.20228055  0.72496235     0.31800
H1176       H  0.73750992  0.13172918  0.73316213     0.33500
H1177       H  0.77169277  0.06497132  0.76821648     0.32500
H1178       H  0.94783310  0.28237144  0.72534874     0.36500
H1179       H  0.93167661  0.21264181  0.71872502     0.29200
H1180       H  0.80179535  0.25074861  0.79328344     0.33500
H1181       H  0.78135053  0.09868658  0.78877429     0.36300
H1182       H  0.79254410  0.24241515  0.72913263     0.28900
H1183       H  0.96446843  0.22356838  0.72783436     0.41800
H1184       H  0.99620699  0.30117063  0.76656397     0.31800
H1185       H  0.96320218  0.34251154  0.75955765     0.39500
H1186       H  0.76949548  0.08244117  0.75577174     0.31300
H1187       H  0.91806036  0.20149221  0.79592319     0.31400
H1188       H  0.80523640  0.21488257  0.79564745     0.31600
C1189       C  0.94016527  0.34940521  0.82442549     0.17600
C1190       C  0.96450265  0.38784298  0.82239733    -0.11500
C1191       C  0.97632648  0.41292577  0.83218495    -0.12300
C1192       C  0.96383198  0.39961213  0.84401907     0.19200
C1193       C  0.93953063  0.36119032  0.84603951    -0.14400
C1194       C  0.92771488  0.33612863  0.83626002    -0.12600
C1195       C  0.97589678  0.42515971  0.85413111     0.00200
C1196       C  0.98515541  0.44511585  0.86297204    -0.32700
C1197       C  0.92752981  0.32371653  0.81434237     0.01500
C1198       C  0.91690048  0.30310162  0.80565594    -0.34300
H1199       H  0.97421973  0.39839185  0.81326623     0.12600
H1200       H  0.99511631  0.44259437  0.83053376     0.12400
H1201       H  0.92971408  0.35064028  0.85516381     0.12300
H1202       H  0.90883406  0.30648256  0.83791508     0.11300
C1203       C  0.24260873  0.74807283  0.91610207     0.17600
C1204       C  0.27647196  0.74966134  0.91915053    -0.11500
C1205       C  0.31057198  0.78324090  0.91769579    -0.12300
C1206       C  0.31094239  0.81533618  0.91316386     0.19200
C1207       C  0.27712380  0.81363697  0.91001581    -0.14400
C1208       C  0.24306373  0.78010181  0.91147261    -0.12600
C1209       C  0.34580265  0.85027770  0.91206279     0.00200
C1210       C  0.37466873  0.87997536  0.91149741    -0.32700
C1211       C  0.20740205  0.71354906  0.91748268     0.01500
C1212       C  0.17734924  0.68499356  0.91790474    -0.34300
H1213       H  0.27649844  0.72503028  0.92266856     0.12600
H1214       H  0.33656333  0.78424393  0.92016880     0.12400
H1215       H  0.27707289  0.83827593  0.90651329     0.12300
H1216       H  0.21709396  0.77916571  0.90901612     0.11300
C1217       C  0.73933312  0.24854608  0.90828566     0.17600
C1218       C  0.77376723  0.24933664  0.90849856    -0.11500
C1219       C  0.80730244  0.28352351  0.90736984    -0.12300
C1220       C  0.80650992  0.31700865  0.90600292     0.19200
C1221       C  0.77206665  0.31623933  0.90586322    -0.14400
C1222       C  0.73851972  0.28203989  0.90699123    -0.12600
C1223       C  0.84111842  0.35216206  0.90512989     0.00200
C1224       C  0.87062469  0.38123353  0.90514775    -0.32700
C1225       C  0.70481709  0.21340280  0.90927646     0.01500
C1226       C  0.67547219  0.18430389  0.90994396    -0.34300
H1227       H  0.77467714  0.22358523  0.90951974     0.12600
H1228       H  0.83381577  0.28387175  0.90758779     0.12400
H1229       H  0.77116124  0.34200950  0.90490993     0.12300
H1230       H  0.71199986  0.28169151  0.90684069     0.11300
C1231       C  0.13989931  0.19232508  0.75272324     0.17600
C1232       C  0.11578204  0.18356242  0.74271897    -0.11500
C1233       C  0.08325112  0.18619690  0.74371704    -0.12300
C1234       C  0.07470179  0.19757805  0.75472285     0.19200
C1235       C  0.09866551  0.20606664  0.76475327    -0.14400
C1236       C  0.13117349  0.20342387  0.76375702    -0.12600
C1237       C  0.04142287  0.20061160  0.75570040     0.00200
C1238       C  0.01339454  0.20294157  0.75633114    -0.32700
C1239       C  0.17402280  0.19080468  0.75166567     0.01500
C1240       C  0.20340109  0.19090418  0.75148958    -0.34300
H1241       H  0.12224357  0.17496293  0.73414787     0.12600
H1242       H  0.06487519  0.17952624  0.73590809     0.12400
H1243       H  0.09230745  0.21485491  0.77330821     0.12300
H1244       H  0.14962535  0.21027649  0.77155413     0.11300
C1245       C  0.64826361  0.20518189  0.76138503     0.17600
C1246       C  0.64260704  0.22868274  0.76926783    -0.11500
C1247       C  0.60737348  0.22597177  0.76996567    -0.12300
C1248       C  0.57767196  0.19971377  0.76279058     0.19200
C1249       C  0.58336055  0.17626982  0.75488717    -0.14400
C1250       C  0.61858395  0.17898020  0.75418947    -0.12600
C1251       C  0.54155188  0.19722790  0.76333485     0.00200
C1252       C  0.51130865  0.19524040  0.76321204    -0.32700
C1253       C  0.68449779  0.20799498  0.76066709     0.01500
C1254       C  0.71480154  0.21024456  0.76000231    -0.34300
H1255       H  0.66540694  0.24908073  0.77485131     0.12600
H1256       H  0.60331840  0.24435317  0.77606236     0.12400
H1257       H  0.56061811  0.15599439  0.74925638     0.12300
H1258       H  0.62268226  0.16072121  0.74804631     0.11300
C1259       C  0.42882045  0.12394370  0.82406558     0.17600
C1260       C  0.43471809  0.14147882  0.83543468    -0.11500
C1261       C  0.44858643  0.12994074  0.84514671    -0.12300
C1262       C  0.45662069  0.10089557  0.84349634     0.19200
C1263       C  0.45103828  0.08360681  0.83210506    -0.14400
C1264       C  0.43718381  0.09514216  0.82239808    -0.12600
C1265       C  0.46973656  0.08828898  0.85357181     0.00200
C1266       C  0.47970532  0.07793341  0.86233811    -0.32700
C1267       C  0.41426867  0.13543095  0.81407968     0.01500
C1268       C  0.40283472  0.14479817  0.80543129    -0.34300
H1269       H  0.42844502  0.16386573  0.83679662     0.12600
H1270       H  0.45280367  0.14344742  0.85394121     0.12400
H1271       H  0.45715063  0.06110574  0.83075707     0.12300
H1272       H  0.43282360  0.08151416  0.81362235     0.11300
C1273       C  0.80924518  0.53608541  0.90736568     0.17600
C1274       C  0.77681342  0.50445974  0.90304734    -0.11500
C1275       C  0.74279261  0.50439591  0.90258969    -0.12300
C1276       C  0.74107084  0.53597097  0.90643764     0.19200
C1277       C  0.77345439  0.56749248  0.91085316    -0.14400
C1278       C  0.80748033  0.56755774  0.91130919    -0.12600
C1279       C  0.70602359  0.53585848  0.90603451     0.00200
C1280       C  0.67680895  0.53606565  0.90625183    -0.32700
C1281       C  0.84423960  0.53615426  0.90779183     0.01500
C1282       C  0.87336915  0.53586826  0.90828549    -0.34300
H1283       H  0.77784313  0.47991348  0.90002936     0.12600
H1284       H  0.71788302  0.47978735  0.89923854     0.12400
H1285       H  0.77239388  0.59197081  0.91393117     0.12300
H1286       H  0.83236100  0.59209389  0.91471725     0.11300
C1287       C  0.24395699  0.54445379  0.91608139     0.17600
C1288       C  0.27198395  0.56164370  0.90717052    -0.11500
C1289       C  0.30599854  0.56197065  0.90845602    -0.12300
C1290       C  0.31212563  0.54511244  0.91865697     0.19200
C1291       C  0.28425914  0.52833608  0.92763364    -0.14400
C1292       C  0.25025898  0.52801003  0.92634848    -0.12600
C1293       C  0.34618861  0.54342407  0.91959143     0.00200
C1294       C  0.37411807  0.54078908  0.91969857    -0.32700
C1295       C  0.20858883  0.54326195  0.91466261     0.01500
C1296       C  0.17866383  0.54176801  0.91373793    -0.34300
H1297       H  0.26741189  0.57445047  0.89919636     0.12600
H1298       H  0.32728652  0.57489919  0.90143041     0.12400
H1299       H  0.28861515  0.51509294  0.93552990     0.12300
H1300       H  0.22877399  0.51464903  0.93329419     0.11300
C1301       C  0.52204992  0.31881441  0.90891175     0.17600
C1302       C  0.55598708  0.32029719  0.90604294    -0.11500
C1303       C  0.55717175  0.28709010  0.90462993    -0.12300
C1304       C  0.52437906  0.25222517  0.90604591     0.19200
C1305       C  0.49050349  0.25074689  0.90902431    -0.14400
C1306       C  0.48931778  0.28395527  0.91043630    -0.12600
C1307       C  0.52547401  0.21793186  0.90473358     0.00200
C1308       C  0.52517862  0.18845826  0.90444823    -0.32700
C1309       C  0.52094478  0.35309641  0.91020679     0.01500
C1310       C  0.52117693  0.38243922  0.91111635    -0.34300
H1311       H  0.58148420  0.34710495  0.90487804     0.12600
H1312       H  0.58358436  0.28859988  0.90243239     0.12400
H1313       H  0.46503935  0.22394256  0.91024555     0.12300
H1314       H  0.46293896  0.28245100  0.91268855     0.11300
C1315       C  0.51883682  0.81604603  0.91910277     0.17600
C1316       C  0.48561929  0.78201090  0.92123628    -0.11500
C1317       C  0.48531115  0.74793850  0.92010807    -0.12300
C1318       C  0.51819755  0.74779495  0.91681957     0.19200
C1319       C  0.55146359  0.78184370  0.91483499    -0.14400
C1320       C  0.55177517  0.81586008  0.91596609    -0.12600
C1321       C  0.51796392  0.71284632  0.91547219     0.00200
C1322       C  0.51841290  0.68385013  0.91454468    -0.32700
C1323       C  0.51899305  0.85112295  0.91959498     0.01500
C1324       C  0.52010164  0.88098314  0.91923673    -0.34300
H1325       H  0.45995020  0.78180463  0.92363238     0.12600
H1326       H  0.45944535  0.72177109  0.92170418     0.12400
H1327       H  0.57707045  0.78207925  0.91232687     0.12300
H1328       H  0.57758270  0.84198735  0.91426047     0.11300
C1329       C  0.06293880  0.92133221  0.75483492     0.17600
C1330       C  0.09477483  0.91770468  0.75641733    -0.11500
C1331       C  0.13028367  0.94966813  0.75734290    -0.12300
C1332       C  0.13412386  0.98543875  0.75671842     0.19200
C1333       C  0.10229673  0.98913527  0.75512315    -0.14400
C1334       C  0.06671871  0.95711024  0.75419690    -0.12600
C1335       C  0.17074795  0.01827087  0.75760055     0.00200
C1336       C  0.20143136  0.04589200  0.75804799    -0.32700
C1337       C  0.02654245  0.88813682  0.75411585     0.01500
C1338       C  0.99717788  0.85890883  0.75405031    -0.34300
H1339       H  0.09211851  0.89015896  0.75696415     0.12600
H1340       H  0.15470110  0.94649610  0.75855203     0.12400
H1341       H  0.10499709  0.01670296  0.75460673     0.12300
H1342       H  0.04225946  0.96022765  0.75301630     0.11300
C1343       C  0.56767799  0.41266213  0.76142879     0.17600
C1344       C  0.56512262  0.44459102  0.76416982    -0.11500
C1345       C  0.59768876  0.47977771  0.76495089    -0.12300
C1346       C  0.63292055  0.48313392  0.76300493     0.19200
C1347       C  0.63548362  0.45118585  0.76033574    -0.14400
C1348       C  0.60293559  0.41601971  0.75955290    -0.12600
C1349       C  0.66640057  0.51938158  0.76342439     0.00200
C1350       C  0.69475812  0.54953083  0.76330235    -0.32700
C1351       C  0.53415805  0.37652386  0.76049856     0.01500
C1352       C  0.50600691  0.34629055  0.75976244    -0.34300
H1353       H  0.53799616  0.44229943  0.76564381     0.12600
H1354       H  0.59539303  0.50432947  0.76698836     0.12400
H1355       H  0.66259454  0.45350977  0.75878395     0.12300
H1356       H  0.60524193  0.39152275  0.75743534     0.11300
C1357       C  0.86155812  0.99364859  0.75294495     0.17600
C1358       C  0.83114890  0.96459340  0.75921378    -0.11500
C1359       C  0.82902660  0.92981957  0.76072157    -0.12300
C1360       C  0.85732170  0.92400778  0.75596562     0.19200
C1361       C  0.88780605  0.95308911  0.74974115    -0.14400
C1362       C  0.88993064  0.98787431  0.74823346    -0.12600
C1363       C  0.85478548  0.88804476  0.75725071     0.00200
C1364       C  0.85295683  0.85795679  0.75795481    -0.32700
C1365       C  0.86394495  0.02957602  0.75165860     0.01500
C1366       C  0.86486853  0.05931529  0.75139918    -0.34300
H1367       H  0.80915777  0.96885546  0.76294596     0.12600
H1368       H  0.80534232  0.90749299  0.76554778     0.12400
H1369       H  0.90982036  0.94882671  0.74603125     0.12300
H1370       H  0.91364605  0.01021765  0.74342807     0.11300
C1371       C  0.86393046  0.42884770  0.76376980     0.17600
C1372       C  0.89613398  0.46453364  0.76401442    -0.11500
C1373       C  0.89278864  0.49675922  0.76352840    -0.12300
C1374       C  0.85723309  0.49346620  0.76279966     0.19200
C1375       C  0.82503009  0.45778800  0.76259773    -0.14400
C1376       C  0.82837410  0.42557078  0.76308400    -0.12600
C1377       C  0.85384853  0.52666106  0.76219746     0.00200
C1378       C  0.85141473  0.55467660  0.76162390    -0.32700
C1379       C  0.86730033  0.39559797  0.76379042     0.01500
C1380       C  0.86922788  0.36729208  0.76325982    -0.34300
H1381       H  0.92377901  0.46743507  0.76448553     0.12600
H1382       H  0.91788698  0.52419945  0.76366760     0.12400
H1383       H  0.79739871  0.45488406  0.76201291     0.12300
H1384       H  0.80328445  0.39813628  0.76283079     0.11300
C1385       C  0.65866671  0.60722566  0.84583697     0.17600
C1386       C  0.69101424  0.64267193  0.84668146    -0.11500
C1387       C  0.71677916  0.65640296  0.83704243    -0.12300
C1388       C  0.71027465  0.63472563  0.82652543     0.19200
C1389       C  0.67803467  0.59917429  0.82571806    -0.14400
C1390       C  0.65227163  0.58544692  0.83535575    -0.12600
C1391       C  0.73605823  0.64920186  0.81642140     0.00200
C1392       C  0.75617136  0.66029314  0.80757153    -0.32700
C1393       C  0.63240771  0.59310794  0.85580579     0.01500
C1394       C  0.61174643  0.58206286  0.86451376    -0.34300
H1395       H  0.69626730  0.65967506  0.85477222     0.12600
H1396       H  0.74159080  0.68392978  0.83775718     0.12400
H1397       H  0.67272535  0.58219631  0.81761866     0.12300
H1398       H  0.62741034  0.55795520  0.83463200     0.11300
C1399       C  0.55840944  0.02437058  0.98932649     0.17600
C1400       C  0.58987859  0.05799479  0.99305689    -0.11500
C1401       C  0.59458423  0.06839761  0.00535608    -0.12300
C1402       C  0.56779373  0.04525335  0.01398477     0.19200
C1403       C  0.53628283  0.01164349  0.01024931    -0.14400
C1404       C  0.53157092  0.00125094  0.99795088    -0.12600
C1405       C  0.57243780  0.05552111  0.02668983     0.00200
C1406       C  0.57283884  0.06017345  0.03756355    -0.32700
C1407       C  0.55290526  0.01480320  0.97657278     0.01500
C1408       C  0.54893921  0.01081087  0.96567800    -0.34300
H1409       H  0.61062345  0.07628521  0.98644424     0.12600
H1410       H  0.61899699  0.09444331  0.00812426     0.12400
H1411       H  0.51533170  0.99352911  0.01684126     0.12300
H1412       H  0.50694917  0.97539800  0.99516310     0.11300
C1413       C  0.33110551  0.94922165  0.17850859     0.17600
C1414       C  0.36440448  0.98404149  0.17882981    -0.11500
C1415       C  0.38870776  0.99624499  0.16877948    -0.12300
C1416       C  0.37982323  0.97366998  0.15836854     0.19200
C1417       C  0.34653264  0.93887156  0.15805198    -0.14400
C1418       C  0.32224470  0.92667507  0.16809634    -0.12600
C1419       C  0.40470215  0.98612779  0.14799531     0.00200
C1420       C  0.42483925  0.99587412  0.13913661    -0.32700
C1421       C  0.30631499  0.93640705  0.18890768     0.01500
C1422       C  0.28622085  0.92564918  0.19777740    -0.34300
H1423       H  0.37159498  0.00167687  0.18684427     0.12600
H1424       H  0.41437179  0.02319785  0.16912699     0.12400
H1425       H  0.33938091  0.92118232  0.15005187     0.12300
H1426       H  0.29663756  0.89967517  0.16775545     0.11300
C1427       C  0.47244857  0.49481027  0.99067775     0.17600
C1428       C  0.49929969  0.48484016  0.99393538    -0.11500
C1429       C  0.50545864  0.48034784  0.00621299    -0.12300
C1430       C  0.48473223  0.48574787  0.01531102     0.19200
C1431       C  0.45774154  0.49555619  0.01205658    -0.14400
C1432       C  0.45159712  0.50008287  0.99976702    -0.12600
C1433       C  0.49249866  0.48355229  0.02800475     0.00200
C1434       C  0.49858239  0.48581707  0.03882062    -0.32700
C1435       C  0.46731702  0.50025777  0.97799383     0.01500
C1436       C  0.46766250  0.50445149  0.96709466    -0.34300
H1437       H  0.51572903  0.48088603  0.98697752     0.12600
H1438       H  0.52665110  0.47315303  0.00860760     0.12400
H1439       H  0.44181508  0.50018358  0.01903002     0.12300
H1440       H  0.43092084  0.50798572  0.99737285     0.11300
C1441       C  0.52936271  0.76102657  0.09952870     0.17600
C1442       C  0.56268873  0.79521405  0.09777251    -0.11500
C1443       C  0.56175436  0.82867264  0.09692314    -0.12300
C1444       C  0.52747205  0.82805775  0.09781891     0.19200
C1445       C  0.49418568  0.79393057  0.09971792    -0.14400
C1446       C  0.49511999  0.76046163  0.10056792    -0.12600
C1447       C  0.52630280  0.86227611  0.09657451     0.00200
C1448       C  0.52464834  0.89055898  0.09542804    -0.32700
C1449       C  0.53021060  0.72647630  0.09968735     0.01500
C1450       C  0.53135575  0.69779969  0.09910705    -0.34300
H1451       H  0.58928669  0.79592954  0.09690342     0.12600
H1452       H  0.58764758  0.85490912  0.09544644     0.12400
H1453       H  0.46752640  0.79316720  0.10041419     0.12300
H1454       H  0.46916177  0.73416358  0.10187373     0.11300
C1455       C  0.53029747  0.25962091  0.08792706     0.17600
C1456       C  0.56500166  0.29308333  0.08764126    -0.11500
C1457       C  0.56633073  0.32770024  0.08662211    -0.12300
C1458       C  0.53296378  0.32900324  0.08585668     0.19200
C1459       C  0.49831441  0.29552850  0.08611268    -0.14400
C1460       C  0.49698727  0.26096242  0.08713377    -0.12600
C1461       C  0.53404270  0.36457184  0.08520544     0.00200
C1462       C  0.53374471  0.39378811  0.08530437    -0.32700
C1463       C  0.52871623  0.22389385  0.08897636     0.01500
C1464       C  0.52688687  0.19371638  0.08966657    -0.34300
H1465       H  0.59095966  0.29241467  0.08823919     0.12600
H1466       H  0.59329249  0.35338968  0.08649743     0.12400
H1467       H  0.47232941  0.29616499  0.08559190     0.12300
H1468       H  0.47000338  0.23530494  0.08733751     0.11300
C1469       C  0.97714162  0.87136527  0.25092979     0.17600
C1470       C  0.96111489  0.87937471  0.26092510    -0.11500
C1471       C  0.92752329  0.87978889  0.25951832    -0.12300
C1472       C  0.90988650  0.87225376  0.24811161     0.19200
C1473       C  0.92592823  0.86426826  0.23811413    -0.14400
C1474       C  0.95950576  0.86385190  0.23952043    -0.12600
C1475       C  0.87540024  0.87278982  0.24669122     0.00200
C1476       C  0.84646749  0.87330944  0.24578472    -0.32700
C1477       C  0.01167722  0.87087647  0.25229118     0.01500
C1478       C  0.04065508  0.87025826  0.25257831    -0.34300
H1479       H  0.97454589  0.88527106  0.26977765     0.12600
H1480       H  0.91532627  0.88599465  0.26730612     0.12400
H1481       H  0.91252059  0.85840299  0.22925612     0.12300
H1482       H  0.97170698  0.85767386  0.23172584     0.11300
C1483       C  0.48242963  0.87849074  0.24068089     0.17600
C1484       C  0.44985462  0.84672133  0.23652416    -0.11500
C1485       C  0.41605860  0.84700355  0.23584846    -0.12300
C1486       C  0.41469770  0.87905495  0.23932598     0.19200
C1487       C  0.44736955  0.91100061  0.24336341    -0.14400
C1488       C  0.48119627  0.91071986  0.24403805    -0.12600
C1489       C  0.37947677  0.87853835  0.23925436     0.00200
C1490       C  0.34982957  0.87775456  0.23979934    -0.32700
C1491       C  0.51691082  0.87773587  0.24163129     0.01500
C1492       C  0.54543129  0.87638722  0.24240635    -0.34300
H1493       H  0.45051865  0.82165913  0.23391214     0.12600
H1494       H  0.39093054  0.82212018  0.23276128     0.12400
H1495       H  0.44658458  0.93589132  0.24612048     0.12300
H1496       H  0.50623967  0.93543167  0.24726885     0.11300
C1497       C  0.60449900  0.68609949  0.15807920     0.17600
C1498       C  0.64305342  0.71005176  0.15985704    -0.11500
C1499       C  0.65565765  0.73638572  0.16927818    -0.12300
C1500       C  0.62973511  0.73892792  0.17692523     0.19200
C1501       C  0.59115241  0.71505875  0.17512731    -0.14400
C1502       C  0.57854029  0.68871177  0.16569910    -0.12600
C1503       C  0.64271884  0.76530788  0.18680943     0.00200
C1504       C  0.65306720  0.78598711  0.19547493    -0.32700
C1505       C  0.59170794  0.65917840  0.14835293     0.01500
C1506       C  0.58158536  0.63771869  0.13989287    -0.34300
H1507       H  0.66332437  0.70830554  0.15398298     0.12600
H1508       H  0.68554502  0.75461964  0.17063029     0.12400
H1509       H  0.57089337  0.71672264  0.18103212     0.12300
H1510       H  0.54865552  0.67038117  0.16436926     0.11300
C1511       C  0.19229164  0.15617472  0.25158608     0.17600
C1512       C  0.15782722  0.12344379  0.24951376    -0.11500
C1513       C  0.15620321  0.08872267  0.24847715    -0.12300
C1514       C  0.18906008  0.08657378  0.24948379     0.19200
C1515       C  0.22353055  0.11933888  0.25149189    -0.14400
C1516       C  0.22515320  0.15403853  0.25252762    -0.12600
C1517       C  0.18754530  0.05086023  0.24855092     0.00200
C1518       C  0.18735275  0.02144933  0.24792563    -0.32700
C1519       C  0.19403463  0.19199131  0.25245680     0.01500
C1520       C  0.19530963  0.22195953  0.25253251    -0.34300
H1521       H  0.13226480  0.12477922  0.24868928     0.12600
H1522       H  0.12939175  0.06361346  0.24690740     0.12400
H1523       H  0.24912495  0.11804664  0.25226849     0.12300
H1524       H  0.25199195  0.17916306  0.25404800     0.11300
C1525       C  0.18860864  0.58762784  0.23922563     0.17600
C1526       C  0.15831673  0.58910193  0.24448655    -0.11500
C1527       C  0.15896676  0.62335230  0.24524925    -0.12300
C1528       C  0.18994410  0.65619690  0.24077512     0.19200
C1529       C  0.22009322  0.65463463  0.23543819    -0.14400
C1530       C  0.21943877  0.62039592  0.23467362    -0.12600
C1531       C  0.19115636  0.69160673  0.24185325     0.00200
C1532       C  0.19259393  0.72146731  0.24283257    -0.32700
C1533       C  0.18859298  0.55274325  0.23886063     0.01500
C1534       C  0.18870857  0.52356047  0.23916544    -0.34300
H1535       H  0.13442025  0.56389411  0.24808263     0.12600
H1536       H  0.13553731  0.62428870  0.24940646     0.12400
H1537       H  0.24419049  0.67989408  0.23196834     0.12300
H1538       H  0.24305238  0.61951859  0.23064167     0.11300
C1539       C  0.98215977  0.15278583  0.24961395     0.17600
C1540       C  0.94836681  0.15199524  0.24710880    -0.11500
C1541       C  0.91414691  0.11845421  0.24829872    -0.12300
C1542       C  0.91348436  0.08549921  0.25203336     0.19200
C1543       C  0.94727988  0.08629626  0.25457712    -0.14400
C1544       C  0.98153682  0.11987425  0.25338611    -0.12600
C1545       C  0.87819541  0.05077007  0.25285357     0.00200
C1546       C  0.84821158  0.02207284  0.25275190    -0.32700
C1547       C  0.01733785  0.18737847  0.24831555     0.01500
C1548       C  0.04638350  0.21681270  0.24735367    -0.34300
H1549       H  0.94848715  0.17725473  0.24419429     0.12600
H1550       H  0.88823852  0.11816697  0.24624076     0.12400
H1551       H  0.94715496  0.06097130  0.25740719     0.12300
H1552       H  0.00748415  0.12014386  0.25535700     0.11300
C1553       C  0.47644739  0.65624224  0.23721008     0.17600
C1554       C  0.44199271  0.65531173  0.23640461    -0.11500
C1555       C  0.40832876  0.62126359  0.23775595    -0.12300
C1556       C  0.40890739  0.58794964  0.23994088     0.19200
C1557       C  0.44337523  0.58882436  0.24063877    -0.14400
C1558       C  0.47705292  0.62288698  0.23928643    -0.12600
C1559       C  0.37413572  0.55303063  0.24151561     0.00200
C1560       C  0.34461052  0.52414001  0.24269417    -0.32700
C1561       C  0.51113959  0.69154947  0.23649920     0.01500
C1562       C  0.54057346  0.72078114  0.23675395    -0.34300
H1563       H  0.44116211  0.68092734  0.23487061     0.12600
H1564       H  0.38187460  0.62095405  0.23718954     0.12400
H1565       H  0.44421755  0.56327707  0.24231588     0.12300
H1566       H  0.50353090  0.62328555  0.23999483     0.11300
C1567       C  0.03229570  0.58391587  0.98910515     0.17600
C1568       C  0.01901763  0.54857208  0.99451385    -0.11500
C1569       C  0.00956496  0.54324458  0.00689759    -0.12300
C1570       C  0.01322364  0.57320350  0.01398388     0.19200
C1571       C  0.02650812  0.60862420  0.00858948    -0.14400
C1572       C  0.03593549  0.61395360  0.99616576    -0.12600
C1573       C  0.00542046  0.56790433  0.02689980     0.00200
C1574       C  0.00224859  0.56322240  0.03781418    -0.32700
C1575       C  0.04062720  0.58844928  0.97622420     0.01500
C1576       C  0.04401078  0.58787552  0.96529904    -0.34300
H1577       H  0.01590175  0.52508769  0.98914349     0.12600
H1578       H  0.99966115  0.51582690  0.01096561     0.12400
H1579       H  0.02979150  0.63210803  0.01399277     0.12300
H1580       H  0.04598469  0.64137138  0.99208114     0.11300
C1581       C  0.31317424  0.53807546  0.09663218     0.17600
C1582       C  0.28595149  0.51364209  0.10495899    -0.11500
C1583       C  0.25147829  0.51257744  0.10587308    -0.12300
C1584       C  0.24412153  0.53596206  0.09846479     0.19200
C1585       C  0.27131874  0.56034164  0.09013406    -0.14400
C1586       C  0.30575095  0.56139949  0.08921872    -0.12600
C1587       C  0.20836114  0.53429192  0.09908406     0.00200
C1588       C  0.17842987  0.53298553  0.09877097    -0.32700
C1589       C  0.34878671  0.53944137  0.09573440     0.01500
C1590       C  0.37881842  0.54103982  0.09494442    -0.34300
H1591       H  0.29136986  0.49544947  0.11072625     0.12600
H1592       H  0.23056711  0.49347276  0.11229896     0.12400
H1593       H  0.26583497  0.57839494  0.08431550     0.12300
H1594       H  0.32654849  0.58036479  0.08273858     0.11300
C1595       C  0.74258717  0.53524505  0.08790679     0.17600
C1596       C  0.74096312  0.50037843  0.08762651    -0.11500
C1597       C  0.77390692  0.49868042  0.08618967    -0.12300
C1598       C  0.80859078  0.53184978  0.08500070     0.19200
C1599       C  0.81014600  0.56667574  0.08521164    -0.14400
C1600       C  0.77723481  0.56837234  0.08665133    -0.12600
C1601       C  0.84280347  0.53041349  0.08416480     0.00200
C1602       C  0.87214275  0.53043315  0.08431385    -0.32700
C1603       C  0.70875694  0.53707317  0.08941485     0.01500
C1604       C  0.68037005  0.53864658  0.09040767    -0.34300
H1605       H  0.71430778  0.47458073  0.08857651     0.12600
H1606       H  0.77238312  0.47160059  0.08612084     0.12400
H1607       H  0.83682560  0.59250314  0.08438206     0.12300
H1608       H  0.77882117  0.59547651  0.08684330     0.11300
C1609       C  0.23665385  0.74988416  0.09501921     0.17600
C1610       C  0.26154031  0.76235960  0.08511059    -0.11500
C1611       C  0.29477937  0.79695419  0.08569254    -0.12300
C1612       C  0.30320682  0.81911648  0.09618355     0.19200
C1613       C  0.27822348  0.80673368  0.10606186    -0.14400
C1614       C  0.24498130  0.77213329  0.10548015    -0.12600
C1615       C  0.33740395  0.85461447  0.09673501     0.00200
C1616       C  0.36608427  0.88442001  0.09661973    -0.32700
C1617       C  0.20266047  0.71421422  0.09448892     0.01500
C1618       C  0.17416650  0.68430113  0.09406643    -0.34300
H1619       H  0.25529334  0.74535342  0.07697315     0.12600
H1620       H  0.31390289  0.80639267  0.07799096     0.12400
H1621       H  0.28446058  0.82375567  0.11419297     0.12300
H1622       H  0.22584200  0.76270072  0.11317549     0.11300
C1623       C  0.73796061  0.25278788  0.08577247     0.17600
C1624       C  0.74354402  0.28583912  0.08014571    -0.11500
C1625       C  0.77790764  0.31917158  0.08139969    -0.12300
C1626       C  0.80679735  0.31959301  0.08829643     0.19200
C1627       C  0.80121227  0.28658739  0.09393707    -0.14400
C1628       C  0.76687510  0.25327360  0.09268146    -0.12600
C1629       C  0.84222469  0.35377743  0.08949514     0.00200
C1630       C  0.87190486  0.38251574  0.09027523    -0.32700
C1631       C  0.70236505  0.21855357  0.08475729     0.01500
C1632       C  0.67276760  0.18945345  0.08469865    -0.34300
H1633       H  0.72134983  0.28585960  0.07483477     0.12600
H1634       H  0.78195025  0.34456615  0.07700348     0.12400
H1635       H  0.82335988  0.28661295  0.09929346     0.12300
H1636       H  0.76282528  0.22794258  0.09712435     0.11300
C1637       C  0.09146506  0.46119660  0.15910045     0.17600
C1638       C  0.11622615  0.44764434  0.15706312    -0.11500
C1639       C  0.12950759  0.43586194  0.16688874    -0.12300
C1640       C  0.11807522  0.43754390  0.17879657     0.19200
C1641       C  0.09341221  0.45122559  0.18084069    -0.14400
C1642       C  0.08011819  0.46300387  0.17101087    -0.12600
C1643       C  0.13142701  0.42500820  0.18889454     0.00200
C1644       C  0.14223049  0.41468660  0.19750039    -0.32700
C1645       C  0.07792920  0.47338810  0.14896929     0.01500
C1646       C  0.06745405  0.48354032  0.14024271    -0.34300
H1647       H  0.12523698  0.44617751  0.14789142     0.12600
H1648       H  0.14859074  0.42538186  0.16520444     0.12400
H1649       H  0.08441417  0.45270125  0.19001293     0.12300
H1650       H  0.06103178  0.47348464  0.17268980     0.11300
C1651       C  0.90285050  0.71523835  0.68191924     0.17600
C1652       C  0.92913273  0.73986841  0.67341248    -0.11500
C1653       C  0.92494778  0.73046189  0.66101236    -0.12300
C1654       C  0.89452690  0.69634973  0.65705372     0.19200
C1655       C  0.86835078  0.67168364  0.66556831    -0.14400
C1656       C  0.87253327  0.68107496  0.67795423    -0.12600
C1657       C  0.88927010  0.68765267  0.64421343     0.00200
C1658       C  0.88496746  0.68355826  0.63331766    -0.32700
C1659       C  0.90623208  0.72482255  0.69469532     0.01500
C1660       C  0.90503762  0.72882839  0.70556958    -0.34300
H1661       H  0.95261264  0.76638882  0.67634136     0.12600
H1662       H  0.94519567  0.74993619  0.65450044     0.12400
H1663       H  0.84454239  0.64541182  0.66262394     0.12300
H1664       H  0.85194674  0.66182636  0.68443315     0.11300
C1665       C  0.70220327  0.91593786  0.32239221     0.17600
C1666       C  0.70361069  0.94561543  0.32907865    -0.11500
C1667       C  0.69273969  0.94043534  0.34136043    -0.12300
C1668       C  0.68020129  0.90548376  0.34698393     0.19200
C1669       C  0.67853539  0.87574357  0.34025792    -0.14400
C1670       C  0.68942750  0.88092838  0.32799517    -0.12600
C1671       C  0.67163922  0.90073122  0.35983670     0.00200
C1672       C  0.66839500  0.89653221  0.37075398    -0.32700
C1673       C  0.71218398  0.92066830  0.30965751     0.01500
C1674       C  0.71656206  0.92113306  0.29877046    -0.34300
H1675       H  0.71313483  0.97269944  0.32481051     0.12600
H1676       H  0.69447199  0.96373379  0.34649288     0.12400
H1677       H  0.66921270  0.84869280  0.34452868     0.12300
H1678       H  0.68791556  0.85767225  0.32288950     0.11300
C1679       C  0.78576271  0.76835590  0.51111213     0.17600
C1680       C  0.77940200  0.75030900  0.49982026    -0.11500
C1681       C  0.76610448  0.76204798  0.48998629    -0.12300
C1682       C  0.75912648  0.79189129  0.49139583     0.19200
C1683       C  0.76589750  0.81022364  0.50265179    -0.14400
C1684       C  0.77919966  0.79848484  0.51248697    -0.12600
C1685       C  0.74541591  0.80384155  0.48124479     0.00200
C1686       C  0.73487221  0.81367295  0.47245315    -0.32700
C1687       C  0.79797492  0.75538761  0.52138907     0.01500
C1688       C  0.80738389  0.74506813  0.53033070    -0.34300
H1689       H  0.78441321  0.72701719  0.49865070     0.12600
H1690       H  0.76113099  0.74778636  0.48130690     0.12400
H1691       H  0.76077041  0.83343757  0.50383286     0.12300
H1692       H  0.78406241  0.81266696  0.52117890     0.11300
C1693       C  0.34455461  0.23738491  0.68073469     0.17600
C1694       C  0.37811076  0.23999854  0.67666071    -0.11500
C1695       C  0.38865107  0.24775842  0.66440853    -0.12300
C1696       C  0.36576235  0.25308844  0.65615968     0.19200
C1697       C  0.33235506  0.25085214  0.66024058    -0.14400
C1698       C  0.32179370  0.24307970  0.67251762    -0.12600
C1699       C  0.37491656  0.25766967  0.64337009     0.00200
C1700       C  0.37902338  0.25688201  0.63251053    -0.32700
C1701       C  0.33403892  0.22897170  0.69337091     0.01500
C1702       C  0.33001961  0.22289946  0.70419167    -0.34300
H1703       H  0.39595342  0.23568284  0.68294019     0.12600
H1704       H  0.41428538  0.24897635  0.66133214     0.12400
H1705       H  0.31421097  0.25449170  0.65390206     0.12300
H1706       H  0.29582477  0.24116668  0.67556546     0.11300
C1707       C  0.14105440  0.98441473  0.57250748     0.17600
C1708       C  0.12963673  0.95851516  0.56292699    -0.11500
C1709       C  0.09588966  0.92433522  0.56379658    -0.12300
C1710       C  0.07344497  0.91588869  0.57425881     0.19200
C1711       C  0.08494810  0.94170626  0.58386421    -0.14400
C1712       C  0.11867702  0.97586898  0.58299514    -0.12600
C1713       C  0.03841123  0.88102413  0.57509084     0.00200
C1714       C  0.00869078  0.85225054  0.57586284    -0.32700
C1715       C  0.17593237  0.01949318  0.57170029     0.01500
C1716       C  0.20544840  0.04865702  0.57171214    -0.34300
H1717       H  0.14678223  0.96474594  0.55480192     0.12600
H1718       H  0.08726537  0.90457639  0.55631476     0.12400
H1719       H  0.06781721  0.93547001  0.59199621     0.12300
H1720       H  0.12729119  0.99559991  0.59048648     0.11300
C1721       C  0.64075396  0.48704982  0.58396234     0.17600
C1722       C  0.60635338  0.48626846  0.58330019    -0.11500
C1723       C  0.57267796  0.45226605  0.58462912    -0.12300
C1724       C  0.57322877  0.41887990  0.58666336     0.19200
C1725       C  0.60765134  0.41968869  0.58740069    -0.14400
C1726       C  0.64134978  0.45371505  0.58607103    -0.12600
C1727       C  0.53846294  0.38371100  0.58751199     0.00200
C1728       C  0.50902549  0.35446888  0.58740068    -0.32700
C1729       C  0.67535483  0.52204220  0.58248911     0.01500
C1730       C  0.70428866  0.55150600  0.58146281    -0.34300
H1731       H  0.60556992  0.51188081  0.58169501     0.12600
H1732       H  0.54623810  0.45196009  0.58397722     0.12400
H1733       H  0.60842064  0.39402943  0.58890630     0.12300
H1734       H  0.66780110  0.45400665  0.58662165     0.11300
C1735       C  0.14126456  0.82926034  0.32316534     0.17600
C1736       C  0.12657073  0.84271751  0.33207093    -0.11500
C1737       C  0.13338630  0.83991022  0.34442392    -0.12300
C1738       C  0.15493444  0.82366784  0.34791625     0.19200
C1739       C  0.16899515  0.80956573  0.33902132    -0.14400
C1740       C  0.16215069  0.81233545  0.32667707    -0.12600
C1741       C  0.16383727  0.82311600  0.36058330     0.00200
C1742       C  0.17056811  0.82585863  0.37135257    -0.32700
C1743       C  0.13713086  0.83469633  0.31040779     0.01500
C1744       C  0.13804068  0.83952618  0.29953460    -0.34300
H1745       H  0.11054882  0.85600609  0.32946433     0.12600
H1746       H  0.12246365  0.85102131  0.35123519     0.12400
H1747       H  0.18577205  0.79708111  0.34160863     0.12300
H1748       H  0.17380150  0.80199068  0.31985712     0.11300
C1749       C  0.91212597  0.86800999  0.42896595     0.17600
C1750       C  0.93875961  0.88749625  0.43805624    -0.11500
C1751       C  0.97383349  0.88976830  0.43763580    -0.12300
C1752       C  0.98238494  0.87254268  0.42812900     0.19200
C1753       C  0.95569657  0.85294715  0.41905994    -0.14400
C1754       C  0.92063015  0.85067328  0.41948084    -0.12600
C1755       C  0.01850873  0.87499683  0.42766949     0.00200
C1756       C  0.04872158  0.87695618  0.42720686    -0.32700
C1757       C  0.87638046  0.86640167  0.42920620     0.01500
C1758       C  0.84648498  0.86515791  0.42896355    -0.34300
H1759       H  0.93248650  0.90105524  0.44541606     0.12600
H1760       H  0.99428068  0.90500043  0.44468995     0.12400
H1761       H  0.96202597  0.83953837  0.41166499     0.12300
H1762       H  0.90025180  0.83559052  0.41239235     0.11300
C1763       C  0.47933650  0.87018998  0.41787118     0.17600
C1764       C  0.44471110  0.83675507  0.41839465    -0.11500
C1765       C  0.41156753  0.83792650  0.41998213    -0.12300
C1766       C  0.41294111  0.87254177  0.42107233     0.19200
C1767       C  0.44754391  0.90598475  0.42047127    -0.14400
C1768       C  0.48068752  0.90481318  0.41888516    -0.12600
C1769       C  0.37885614  0.87376172  0.42268764     0.00200
C1770       C  0.35016956  0.87471824  0.42371480    -0.32700
C1771       C  0.51356475  0.86891411  0.41694198     0.01500
C1772       C  0.54238360  0.86798224  0.41708026    -0.34300
H1773       H  0.44338714  0.80983403  0.41770011     0.12600
H1774       H  0.38494440  0.81190137  0.42041199     0.12400
H1775       H  0.44889975  0.93289611  0.42128159     0.12300
H1776       H  0.50734189  0.93082807  0.41857284     0.11300
C1777       C  0.27097325  0.01363034  0.49283463     0.17600
C1778       C  0.24540008  0.01973695  0.49947215    -0.11500
C1779       C  0.25816888  0.04622989  0.50885647    -0.12300
C1780       C  0.29655087  0.06670897  0.51160594     0.19200
C1781       C  0.32208008  0.06051884  0.50498816    -0.14400
C1782       C  0.30931730  0.03403355  0.49561155    -0.12600
C1783       C  0.30963478  0.09324500  0.52144515     0.00200
C1784       C  0.31994619  0.11399934  0.53009197    -0.32700
C1785       C  0.25812001  0.98754273  0.48287061     0.01500
C1786       C  0.24794634  0.96731810  0.47409274    -0.34300
H1787       H  0.21570746  0.00419928  0.49735079     0.12600
H1788       H  0.23818047  0.05070764  0.51396394     0.12400
H1789       H  0.35178281  0.07610985  0.50708790     0.12300
H1790       H  0.32932252  0.02961724  0.49049170     0.11300
C1791       C  0.23154035  0.36248319  0.32308269     0.17600
C1792       C  0.26269763  0.36724776  0.32974683    -0.11500
C1793       C  0.26628756  0.37725475  0.34208226    -0.12300
C1794       C  0.23885957  0.38274130  0.34776616     0.19200
C1795       C  0.20777835  0.37803074  0.34108318    -0.14400
C1796       C  0.20418600  0.36802677  0.32877737    -0.12600
C1797       C  0.24134487  0.39118041  0.36058685     0.00200
C1798       C  0.23994565  0.39459700  0.37146474    -0.32700
C1799       C  0.22821108  0.35380020  0.31026904     0.01500
C1800       C  0.22444504  0.35025490  0.29936122    -0.34300
H1801       H  0.28418277  0.36334255  0.32541444     0.12600
H1802       H  0.29028129  0.38053095  0.34719102     0.12400
H1803       H  0.18623967  0.38189800  0.34539942     0.12300
H1804       H  0.18014182  0.36473044  0.32368915     0.11300
C1805       C  0.19791799  0.16400751  0.43106250     0.17600
C1806       C  0.23152656  0.16459738  0.42831856    -0.11500
C1807       C  0.23324910  0.13145516  0.42898153    -0.12300
C1808       C  0.20137715  0.09760310  0.43239761     0.19200
C1809       C  0.16787112  0.09710391  0.43515845    -0.14400
C1810       C  0.16614913  0.13018118  0.43449377    -0.12600
C1811       C  0.20255303  0.06314762  0.43270769     0.00200
C1812       C  0.20293226  0.03399325  0.43240951    -0.32700
C1813       C  0.19563660  0.19780745  0.43020187     0.01500
C1814       C  0.19260650  0.22544646  0.42932616    -0.34300
H1815       H  0.25625609  0.19055581  0.42561178     0.12600
H1816       H  0.25927644  0.13216856  0.42675644     0.12400
H1817       H  0.14300986  0.07109755  0.43774068     0.12300
H1818       H  0.13999060  0.12934211  0.43659220     0.11300
C1819       C  0.20039202  0.66355886  0.41836984     0.17600
C1820       C  0.17310423  0.63556014  0.42587370    -0.11500
C1821       C  0.17174298  0.60107561  0.42723659    -0.12300
C1822       C  0.19771316  0.59435358  0.42111858     0.19200
C1823       C  0.22516296  0.62240607  0.41364652    -0.14400
C1824       C  0.22653222  0.65696424  0.41228299    -0.12600
C1825       C  0.19587632  0.55856676  0.42242688     0.00200
C1826       C  0.19395961  0.52838889  0.42334460    -0.32700
C1827       C  0.20168338  0.69911535  0.41719909     0.01500
C1828       C  0.20141963  0.72833689  0.41721513    -0.34300
H1829       H  0.15288670  0.64041011  0.43067893     0.12600
H1830       H  0.15042115  0.57965516  0.43304104     0.12400
H1831       H  0.24541909  0.61754220  0.40887462     0.12300
H1832       H  0.24790002  0.67846069  0.40651055     0.11300
C1833       C  0.47319496  0.65175939  0.42127516     0.17600
C1834       C  0.44001777  0.65328914  0.42027997    -0.11500
C1835       C  0.40543144  0.62013383  0.41923955    -0.12300
C1836       C  0.40389972  0.58531851  0.41915265     0.19200
C1837       C  0.43708205  0.58378861  0.42015369    -0.14400
C1838       C  0.47166946  0.61694506  0.42119497    -0.12600
C1839       C  0.36827267  0.55113275  0.41837305     0.00200
C1840       C  0.33863942  0.52214283  0.41838272    -0.32700
C1841       C  0.50873821  0.68590327  0.42234731     0.01500
C1842       C  0.53840484  0.71470319  0.42307697    -0.34300
H1843       H  0.44089179  0.68006781  0.42033433     0.12600
H1844       H  0.37993039  0.62162984  0.41854627     0.12400
H1845       H  0.43619076  0.55700045  0.42017130     0.12300
H1846       H  0.49715317  0.61544104  0.42196116     0.11300
C1847       C  0.96601333  0.15489635  0.43113137     0.17600
C1848       C  0.96686706  0.12211580  0.43399908    -0.11500
C1849       C  0.93409365  0.08713323  0.43324470    -0.12300
C1850       C  0.90032813  0.08476131  0.42960979     0.19200
C1851       C  0.89938342  0.11756561  0.42682416    -0.14400
C1852       C  0.93218570  0.15257994  0.42758065    -0.12600
C1853       C  0.86692005  0.04859992  0.42855503     0.00200
C1854       C  0.83937035  0.01800395  0.42758989    -0.32700
C1855       C  0.00010904  0.19069109  0.43137137     0.01500
C1856       C  0.02898855  0.22038542  0.43098309    -0.34300
H1857       H  0.99290741  0.12357381  0.43669311     0.12600
H1858       H  0.93513587  0.06193639  0.43539425     0.12400
H1859       H  0.87343252  0.11604788  0.42397976     0.12300
H1860       H  0.93126859  0.17775455  0.42528356     0.11300
C1861       C  0.82097485  0.15112919  0.68071539     0.17600
C1862       C  0.84979873  0.17982990  0.67384448    -0.11500
C1863       C  0.84396307  0.18466837  0.66158690    -0.12300
C1864       C  0.80921964  0.16091356  0.65612575     0.19200
C1865       C  0.78039953  0.13200467  0.66295380    -0.14400
C1866       C  0.78623438  0.12718556  0.67525228    -0.12600
C1867       C  0.80415549  0.16555457  0.64339032     0.00200
C1868       C  0.80458490  0.17026380  0.63252901    -0.32700
C1869       C  0.82642190  0.14845736  0.69356030     0.01500
C1870       C  0.83167046  0.15111473  0.70441583    -0.34300
H1871       H  0.87662680  0.19874663  0.67800463     0.12600
H1872       H  0.86652961  0.20694944  0.65636835     0.12400
H1873       H  0.75351851  0.11331687  0.65878984     0.12300
H1874       H  0.76361705  0.10514277  0.68051766     0.11300
C1875       C  0.85245483  0.48653626  0.58743128     0.17600
C1876       C  0.88298085  0.48419795  0.59206939    -0.11500
C1877       C  0.88387800  0.45071523  0.59102232    -0.12300
C1878       C  0.85429548  0.41945195  0.58530163     0.19200
C1879       C  0.82363266  0.42171824  0.58077530    -0.14400
C1880       C  0.82273803  0.45516731  0.58182050    -0.12600
C1881       C  0.85551176  0.38521106  0.58391939     0.00200
C1882       C  0.85613337  0.35634366  0.58273520    -0.32700
C1883       C  0.85227558  0.52146548  0.58793825     0.01500
C1884       C  0.85257447  0.55094300  0.58755299    -0.34300
H1885       H  0.90621362  0.50832594  0.59636875     0.12600
H1886       H  0.90773559  0.44931202  0.59456570     0.12400
H1887       H  0.80059846  0.39774970  0.57634292     0.12300
H1888       H  0.79908633  0.45669033  0.57814205     0.11300
C1889       C  0.85801947  0.99089729  0.57280324     0.17600
C1890       C  0.82408004  0.95702004  0.57157747    -0.11500
C1891       C  0.82406567  0.92302083  0.57104593    -0.12300
C1892       C  0.85798652  0.92279141  0.57172120     0.19200
C1893       C  0.89191474  0.95669710  0.57290246    -0.14400
C1894       C  0.89192848  0.99067718  0.57343318    -0.12600
C1895       C  0.85787315  0.88773264  0.57159961     0.00200
C1896       C  0.85734930  0.85817804  0.57210296    -0.32700
C1897       C  0.85812254  0.02584531  0.57361878     0.01500
C1898       C  0.85881765  0.05538692  0.57449522    -0.34300
H1899       H  0.79769002  0.95687880  0.57111525     0.12600
H1900       H  0.79765007  0.89694480  0.57020165     0.12400
H1901       H  0.91827916  0.95683460  0.57350286     0.12300
H1902       H  0.91830948  0.01672176  0.57441449     0.11300
C1903       C  0.57685114  0.20807673  0.58359855     0.17600
C1904       C  0.58035929  0.17842135  0.57880131    -0.11500
C1905       C  0.61391088  0.17793262  0.58023589    -0.12300
C1906       C  0.64413297  0.20706889  0.58648650     0.19200
C1907       C  0.64060901  0.23671214  0.59130047    -0.14400
C1908       C  0.60702941  0.23719725  0.58986651    -0.12600
C1909       C  0.67908609  0.20709381  0.58751535     0.00200
C1910       C  0.70821290  0.20665490  0.58743195    -0.32700
C1911       C  0.54217353  0.20836469  0.58221610     0.01500
C1912       C  0.51283311  0.20812125  0.58127929    -0.34300
H1913       H  0.55720967  0.15574065  0.57394815     0.12600
H1914       H  0.61636953  0.15497433  0.57641263     0.12400
H1915       H  0.66383679  0.25949881  0.59608831     0.12300
H1916       H  0.60461095  0.26025219  0.59362309     0.11300
C1917       C  0.14423457  0.20449310  0.57315136     0.17600
C1918       C  0.14388327  0.23818945  0.57456981    -0.11500
C1919       C  0.11010676  0.23851239  0.57360732    -0.12300
C1920       C  0.07652043  0.20516314  0.57120623     0.19200
C1921       C  0.07691972  0.17152976  0.56969994    -0.14400
C1922       C  0.11069020  0.17120634  0.57066243    -0.12600
C1923       C  0.04153701  0.20524743  0.57082050     0.00200
C1924       C  0.01250708  0.20581731  0.57126470    -0.32700
C1925       C  0.17883553  0.20390199  0.57437423     0.01500
C1926       C  0.20751968  0.20285716  0.57540640    -0.34300
H1927       H  0.16961817  0.26410137  0.57650677     0.12600
H1928       H  0.11011081  0.26464997  0.57485702     0.12400
H1929       H  0.05111486  0.14553800  0.56790886     0.12300
H1930       H  0.11060711  0.14498470  0.56955898     0.11300
C1931       C  0.04998249  0.31074285  0.49282254     0.17600
C1932       C  0.02655716  0.27215551  0.49482145    -0.11500
C1933       C  0.00129222  0.25954039  0.50459056    -0.12300
C1934       C  0.99936813  0.28549085  0.51237474     0.19200
C1935       C  0.02283490  0.32406775  0.51039473    -0.14400
C1936       C  0.04810134  0.33668608  0.50062283    -0.12600
C1937       C  0.97380743  0.27255386  0.52251298     0.00200
C1938       C  0.95322663  0.26169683  0.53122709    -0.32700
C1939       C  0.07527851  0.32360025  0.48260317     0.01500
C1940       C  0.09514452  0.33329713  0.47370619    -0.34300
H1941       H  0.02775424  0.25188261  0.48881527     0.12600
H1942       H  0.98332229  0.22964276  0.50607758     0.12400
H1943       H  0.02160270  0.34432654  0.51639767     0.12300
H1944       H  0.06604103  0.36657901  0.49912955     0.11300
loop_ 
_geom_bond_atom_site_label_1 
_geom_bond_atom_site_label_2 
_geom_bond_distance 
_geom_bond_site_symmetry_2 
_ccdc_geom_bond_type 
Zr1           O2   2.439       .  S
Zr1           O3   2.431       .  S
Zr1           O4   2.422       .  S
Zr1           O7   2.423       .  S
Zr1           O9   2.377       .  S
Zr1          O10   2.379       .  S
Zr1          O11   2.404       .  S
Zr1          O12   2.401       .  S
O2           H58   0.990       .  S
O2           H66   0.990       .  S
O3           C23   1.283       .  A
O4           C25   1.281       .  A
O5          Zr15   2.433       .  S
O5           C24   1.283       .  A
O6          Zr14   2.429       .  S
O6           C25   1.283       .  A
O7           C24   1.282       .  A
O8          Zr16   2.431       .  S
O8           C23   1.282       .  A
O9          Zr14   2.388       .  S
O9          Zr16   2.366       .  S
O10         Zr15   2.384       .  S
O10         Zr16   2.374       .  S
O10          H45   0.967       .  S
O11         Zr14   2.395       .  S
O11         Zr31   2.400       .  S
O11          H48   0.968       .  S
O12         Zr15   2.386       .  S
O12         Zr31   2.397       .  S
Zr13         O38   2.448       .  S
Zr13         O32   2.437       .  S
Zr13         O40   2.436       .  S
Zr13         O28   2.431       .  S
Zr13         O19   2.401       .  S
Zr13         O20   2.405       .  S
Zr13         O21   2.378       .  S
Zr13         O22   2.385       .  S
Zr14         O33   2.436       .  S
Zr14         O26   2.434       .  S
Zr14         O27   2.435       .  S
Zr14         O20   2.395       .  S
Zr14         O21   2.384       .  S
Zr15         O17   2.435       .  S
Zr15         O39   2.438       .  S
Zr15         O41   2.420       .  S
Zr15         O19   2.393       .  S
Zr15         O22   2.387       .  S
Zr16         O42   2.435       .  S
Zr16         O43   2.434       .  S
Zr16         O18   2.436       .  S
Zr16         O19   2.394       .  S
Zr16         O20   2.397       .  S
O17          H54   0.990       .  S
O18          H49   0.990   1_655  S
O18          H63   0.990       .  S
O20          H46   0.964       .  S
O21         Zr31   2.372       .  S
O22         Zr31   2.383       .  S
O22          H47   0.967       .  S
C23        C1924   1.436   1_655  S
C24        C1898   1.433       .  S
C25        C1938   1.430       .  S
O26          H62   0.990       .  S
O27          C29   1.284       .  A
O28          C29   1.283       .  A
C29        C1882   1.437       .  S
O30         Zr31   2.439       .  S
O30          H59   0.990       .  S
Zr31         O34   2.436       .  S
Zr31         O35   2.440       .  S
Zr31         O36   2.426       .  S
O32          C37   1.284       .  A
O33          H50   0.990       .  S
O33          H65   0.990       .  S
O34          H51   0.990       .  S
O35          H55   0.990       .  S
O35          H64   0.990       .  S
O36          C37   1.281       .  A
C37        C1910   1.437       .  S
O38          H57   0.990       .  S
O38          H61   0.990       .  S
O39          H53   0.990       .  S
O39          H60   0.990       .  S
O40          C44   1.284       .  A
O41          C44   1.281       .  A
O42          H52   0.990       .  S
O43          H56   0.990       .  S
C44        C1868   1.432       .  S
Zr67         O68   2.440       .  S
Zr67         O69   2.432       .  S
Zr67         O70   2.430       .  S
Zr67         O73   2.436       .  S
Zr67         O75   2.379       .  S
Zr67         O76   2.380       .  S
Zr67         O77   2.405       .  S
Zr67         O78   2.399       .  S
O68         H124   0.990       .  S
O68         H132   0.990       .  S
O69          C89   1.282       .  A
O70          C91   1.282       .  A
O71         Zr81   2.430       .  S
O71          C90   1.283       .  A
O72         Zr80   2.427       .  S
O72          C91   1.282       .  A
O73          C90   1.284       .  A
O74         Zr82   2.425       .  S
O74          C89   1.281       .  A
O75         Zr80   2.391       .  S
O75         Zr82   2.369       .  S
O76         Zr81   2.390       .  S
O76         Zr82   2.378       .  S
O76         H111   0.967       .  S
O77         Zr80   2.398       .  S
O77         Zr97   2.398       .  S
O77         H114   0.968       .  S
O78         Zr81   2.386       .  S
O78         Zr97   2.391       .  S
Zr79        O104   2.449       .  S
Zr79         O98   2.433       .  S
Zr79        O106   2.440       .  S
Zr79         O94   2.432       .  S
Zr79         O85   2.398       .  S
Zr79         O86   2.404       .  S
Zr79         O87   2.379       .  S
Zr79         O88   2.386       .  S
Zr80         O99   2.436       .  S
Zr80         O92   2.435       .  S
Zr80         O93   2.435       .  S
Zr80         O86   2.395       .  S
Zr80         O87   2.383       .  S
Zr81         O83   2.435       .  S
Zr81        O105   2.438       .  S
Zr81        O107   2.420       .  S
Zr81         O85   2.389       .  S
Zr81         O88   2.388       .  S
Zr82        O108   2.435       .  S
Zr82        O109   2.433       .  S
Zr82         O84   2.436       .  S
Zr82         O85   2.390       .  S
Zr82         O86   2.400       .  S
O83         H120   0.990       .  S
O84         H115   0.990       .  S
O84         H129   0.990       .  S
O86         H112   0.964       .  S
O87         Zr97   2.371       .  S
O88         Zr97   2.384       .  S
O88         H113   0.967       .  S
C89        C1856   1.434       .  S
C90        C1814   1.437       .  S
C91        C1940   1.431       .  S
O92         H128   0.990       .  S
O93          C95   1.284       .  A
O94          C95   1.283       .  A
C95        C1826   1.437       .  S
O96         Zr97   2.439       .  S
O96         H125   0.990       .  S
Zr97        O100   2.437       .  S
Zr97        O101   2.439       .  S
Zr97        O102   2.426       .  S
O98         C103   1.283       .  A
O99         H116   0.990       .  S
O99         H131   0.990       .  S
O100        H117   0.990       .  S
O101        H121   0.990       .  S
O101        H130   0.989       .  S
O102        C103   1.281       .  A
C103       C1840   1.434       .  S
O104        H123   0.990       .  S
O104        H127   0.990       .  S
O105        H119   0.990       .  S
O105        H126   0.990       .  S
O106        C110   1.284       .  A
O107        C110   1.281       .  A
O108        H118   0.990       .  S
O109        H122   0.990       .  S
C110       C1798   1.434       .  S
Zr133       O134   2.438       .  S
Zr133       O135   2.437       .  S
Zr133       O136   2.426       .  S
Zr133       O139   2.432       .  S
Zr133       O141   2.379       .  S
Zr133       O142   2.377       .  S
Zr133       O143   2.408       .  S
Zr133       O144   2.399       .  S
O134        H190   0.990       .  S
O134        H198   0.990       .  S
O135        C155   1.284       .  A
O136        C157   1.282       .  A
O137       Zr147   2.425       .  S
O137        C156   1.282       .  A
O138       Zr146   2.429       .  S
O138        C157   1.283       .  A
O139        C156   1.284       .  A
O140       Zr148   2.425       .  S
O140        C155   1.281       .  A
O141       Zr146   2.389       .  S
O141       Zr148   2.368       .  S
O142       Zr147   2.383       .  S
O142       Zr148   2.375       .  S
O142        H177   0.966       .  S
O143       Zr146   2.397       .  S
O143       Zr163   2.401       .  S
O143        H180   0.967       .  S
O144       Zr147   2.386       .  S
O144       Zr163   2.396       .  S
Zr145       O170   2.447       .  S
Zr145       O164   2.435       .  S
Zr145       O172   2.444       .  S
Zr145       O160   2.426       .  S
Zr145       O151   2.398       .  S
Zr145       O152   2.406       .  S
Zr145       O153   2.382       .  S
Zr145       O154   2.381       .  S
Zr146       O165   2.439       .  S
Zr146       O158   2.434       .  S
Zr146       O159   2.435       .  S
Zr146       O152   2.397       .  S
Zr146       O153   2.384       .  S
Zr147       O149   2.434       .  S
Zr147       O171   2.438       .  S
Zr147       O173   2.412       .  S
Zr147       O151   2.390       .  S
Zr147       O154   2.386       .  S
Zr148       O174   2.434       .  S
Zr148       O175   2.435       .  S
Zr148       O150   2.436   1_565  S
Zr148       O151   2.393       .  S
Zr148       O152   2.395       .  S
O149        H186   0.990       .  S
O150        H181   0.990       .  S
O150        H195   0.990       .  S
O152        H178   0.964       .  S
O153       Zr163   2.371       .  S
O154       Zr163   2.382       .  S
O154        H179   0.967       .  S
C155       C1812   1.437   1_565  S
C156       C1756   1.434       .  S
C157       C1786   1.431       .  S
O158        H194   0.990       .  S
O159        C161   1.284       .  A
O160        C161   1.282       .  A
C161       C1770   1.433       .  S
O162       Zr163   2.440       .  S
O162        H191   0.990       .  S
Zr163       O166   2.438       .  S
Zr163       O167   2.440       .  S
Zr163       O168   2.428       .  S
O164        C169   1.284       .  A
O165        H182   0.990       .  S
O165        H197   0.990       .  S
O166        H183   0.990       .  S
O167        H187   0.990       .  S
O167        H196   0.989       .  S
O168        C169   1.282       .  A
C169       C1828   1.436       .  S
O170        H189   0.990       .  S
O170        H193   0.990       .  S
O171        H185   0.990       .  S
O171        H192   0.990       .  S
O172        C176   1.285       .  A
O173        C176   1.280       .  A
O174        H184   0.990   1_565  S
O175        H188   0.990       .  S
C176       C1742   1.433       .  S
Zr199       O200   2.438       .  S
Zr199       O201   2.435       .  S
Zr199       O202   2.421       .  S
Zr199       O205   2.427       .  S
Zr199       O207   2.379       .  S
Zr199       O208   2.377       .  S
Zr199       O209   2.408       .  S
Zr199       O210   2.401       .  S
O200        H256   0.990       .  S
O200        H264   0.990       .  S
O201        C221   1.283       .  A
O202        C223   1.281       .  A
O203       Zr213   2.435       .  S
O203        C222   1.284       .  A
O204       Zr212   2.434       .  S
O204        C223   1.284       .  A
O205        C222   1.283       .  A
O206       Zr214   2.426       .  S
O206        C221   1.281       .  A
O207       Zr212   2.386       .  S
O207       Zr214   2.368       .  S
O208       Zr213   2.383       .  S
O208       Zr214   2.376       .  S
O208        H243   0.966       .  S
O209       Zr212   2.396       .  S
O209       Zr229   2.402       .  S
O209        H246   0.968       .  S
O210       Zr213   2.387       .  S
O210       Zr229   2.398       .  S
Zr211       O236   2.447       .  S
Zr211       O230   2.436       .  S
Zr211       O238   2.440       .  S
Zr211       O226   2.430       .  S
Zr211       O217   2.399       .  S
Zr211       O218   2.407       .  S
Zr211       O219   2.381       .  S
Zr211       O220   2.384       .  S
Zr212       O231   2.436       .  S
Zr212       O224   2.434       .  S
Zr212       O225   2.434       .  S
Zr212       O218   2.395       .  S
Zr212       O219   2.385       .  S
Zr213       O215   2.434       .  S
Zr213       O237   2.437       .  S
Zr213       O239   2.417       .  S
Zr213       O217   2.392       .  S
Zr213       O220   2.389       .  S
Zr214       O240   2.434       .  S
Zr214       O241   2.435       .  S
Zr214       O216   2.438       .  S
Zr214       O217   2.394       .  S
Zr214       O218   2.396       .  S
O215        H252   0.990       .  S
O216        H247   0.990       .  S
O216        H261   0.990       .  S
O218        H244   0.964       .  S
O219       Zr229   2.371       .  S
O220       Zr229   2.382       .  S
O220        H245   0.968       .  S
C221       C1716   1.436       .  S
C222       C1926   1.437       .  S
C223       C1784   1.431       .  S
O224        H260   0.990       .  S
O225        C227   1.284       .  A
O226        C227   1.283       .  A
C227       C1912   1.435       .  S
O228       Zr229   2.439       .  S
O228        H257   0.990       .  S
Zr229       O232   2.438       .  S
Zr229       O233   2.440       .  S
Zr229       O234   2.427       .  S
O230        C235   1.284       .  A
O231        H248   0.990       .  S
O231        H263   0.990       .  S
O232        H249   0.990       .  S
O233        H253   0.990       .  S
O233        H262   0.989       .  S
O234        C235   1.281       .  A
C235       C1728   1.436       .  S
O236        H255   0.990       .  S
O236        H259   0.990       .  S
O237        H251   0.990       .  S
O237        H258   0.990       .  S
O238        C242   1.285       .  A
O239        C242   1.280       .  A
O240        H250   0.990       .  S
O241        H254   0.990       .  S
C242       C1700   1.433       .  S
Zr265       O266   2.438       .  S
Zr265       O267   2.432       .  S
Zr265       O268   2.433       .  S
Zr265       O271   2.429       .  S
Zr265       O273   2.378       .  S
Zr265       O274   2.380       .  S
Zr265       O275   2.405       .  S
Zr265       O276   2.401       .  S
O266        H322   0.990       .  S
O266        H330   0.990       .  S
O267        C287   1.283       .  A
O268        C289   1.283       .  A
O269       Zr279   2.429       .  S
O269        C288   1.282       .  A
O270       Zr278   2.431       .  S
O270        C289   1.283       .  A
O271        C288   1.283       .  A
O272       Zr280   2.423       .  S
O272        C287   1.281       .  A
O273       Zr278   2.389       .  S
O273       Zr280   2.371       .  S
O274       Zr279   2.385       .  S
O274       Zr280   2.378       .  S
O274        H309   0.966       .  S
O275       Zr278   2.397       .  S
O275       Zr295   2.402       .  S
O275        H312   0.968       .  S
O276       Zr279   2.388       .  S
O276       Zr295   2.397       .  S
Zr277       O302   2.449       .  S
Zr277       O296   2.431       .  S
Zr277       O304   2.446       .  S
Zr277       O292   2.433       .  S
Zr277       O283   2.397       .  S
Zr277       O284   2.406       .  S
Zr277       O285   2.382       .  S
Zr277       O286   2.385       .  S
Zr278       O297   2.437       .  S
Zr278       O290   2.435       .  S
Zr278       O291   2.429       .  S
Zr278       O284   2.398       .  S
Zr278       O285   2.387       .  S
Zr279       O281   2.435       .  S
Zr279       O303   2.439       .  S
Zr279       O305   2.418       .  S
Zr279       O283   2.393       .  S
Zr279       O286   2.387       .  S
Zr280       O306   2.434       .  S
Zr280       O307   2.435       .  S
Zr280       O282   2.436       .  S
Zr280       O283   2.391       .  S
Zr280       O284   2.395       .  S
O281        H318   0.990       .  S
O282        H313   0.990       .  S
O282        H327   0.990       .  S
O284        H310   0.965       .  S
O285       Zr295   2.370       .  S
O286       Zr295   2.384       .  S
O286        H311   0.967       .  S
C287       C1758   1.433       .  S
C288       C1854   1.434   1_565  S
C289       C1686   1.435       .  S
O290        H326   0.990       .  S
O291        C293   1.283       .  A
O292        C293   1.283       .  A
C293       C1842   1.434       .  S
O294       Zr295   2.440       .  S
O294        H323   0.990       .  S
Zr295       O298   2.437       .  S
Zr295       O299   2.439       .  S
Zr295       O300   2.424       .  S
O296        C301   1.283       .  A
O297        H314   0.990       .  S
O297        H329   0.990       .  S
O298        H315   0.990       .  S
O299        H319   0.990       .  S
O299        H328   0.990       .  S
O300        C301   1.281       .  A
C301       C1772   1.433       .  S
O302        H321   0.990       .  S
O302        H325   0.990       .  S
O303        H317   0.990       .  S
O303        H324   0.990       .  S
O304        C308   1.285       .  A
O305        C308   1.280       .  A
O306        H316   0.990       .  S
O307        H320   0.990       .  S
C308       C1672   1.436       .  S
Zr331       O332   2.439       .  S
Zr331       O333   2.433       .  S
Zr331       O334   2.427       .  S
Zr331       O337   2.428       .  S
Zr331       O339   2.379       .  S
Zr331       O340   2.381       .  S
Zr331       O341   2.405       .  S
Zr331       O342   2.401       .  S
O332        H388   0.990       .  S
O332        H396   0.990       .  S
O333        C353   1.283       .  A
O334        C355   1.282       .  A
O335       Zr345   2.432       .  S
O335        C354   1.283       .  A
O336       Zr344   2.433       .  S
O336        C355   1.283       .  A
O337        C354   1.283       .  A
O338       Zr346   2.424       .  S
O338        C353   1.281       .  A
O339       Zr344   2.389       .  S
O339       Zr346   2.371       .  S
O340       Zr345   2.388       .  S
O340       Zr346   2.377       .  S
O340        H375   0.967       .  S
O341       Zr344   2.395       .  S
O341       Zr361   2.402       .  S
O341        H378   0.968       .  S
O342       Zr345   2.386       .  S
O342       Zr361   2.396       .  S
Zr343       O368   2.449       .  S
Zr343       O362   2.432       .  S
Zr343       O370   2.445       .  S
Zr343       O358   2.430       .  S
Zr343       O349   2.397       .  S
Zr343       O350   2.405       .  S
Zr343       O351   2.381       .  S
Zr343       O352   2.386       .  S
Zr344       O363   2.437       .  S
Zr344       O356   2.434       .  S
Zr344       O357   2.431       .  S
Zr344       O350   2.397       .  S
Zr344       O351   2.385       .  S
Zr345       O347   2.436       .  S
Zr345       O369   2.437       .  S
Zr345       O371   2.420       .  S
Zr345       O349   2.392       .  S
Zr345       O352   2.387       .  S
Zr346       O372   2.436       .  S
Zr346       O373   2.434       .  S
Zr346       O348   2.435       .  S
Zr346       O349   2.388       .  S
Zr346       O350   2.396       .  S
O347        H384   0.990       .  S
O348        H379   0.990       .  S
O348        H393   0.990       .  S
O350        H376   0.964       .  S
O351       Zr361   2.372       .  S
O352       Zr361   2.384       .  S
O352        H377   0.967       .  S
C353       C1896   1.434       .  S
C354       C1714   1.435   1_655  S
C355       C1688   1.434       .  S
O356        H392   0.990       .  S
O357        C359   1.283       .  A
O358        C359   1.282       .  A
C359       C1730   1.434       .  S
O360       Zr361   2.440       .  S
O360        H389   0.990       .  S
Zr361       O364   2.437       .  S
Zr361       O365   2.440       .  S
Zr361       O366   2.428       .  S
O362        C367   1.283       .  A
O363        H380   0.990       .  S
O363        H395   0.990       .  S
O364        H381   0.990       .  S
O365        H385   0.990       .  S
O365        H394   0.989       .  S
O366        C367   1.282       .  A
C367       C1884   1.436       .  S
O368        H387   0.990       .  S
O368        H391   0.990       .  S
O369        H383   0.990       .  S
O369        H390   0.990       .  S
O370        C374   1.285       .  A
O371        C374   1.281       .  A
O372        H382   0.990       .  S
O373        H386   0.990       .  S
C374       C1658   1.437       .  S
Zr397       O398   2.437       .  S
Zr397       O399   2.428       .  S
Zr397       O400   2.427       .  S
Zr397       O403   2.423       .  S
Zr397       O405   2.379       .  S
Zr397       O406   2.379       .  S
Zr397       O407   2.406       .  S
Zr397       O408   2.400       .  S
O398        H454   0.990       .  S
O398        H462   0.990       .  S
O399        C419   1.282       .  A
O400        C421   1.282       .  A
O401       Zr411   2.425       .  S
O401        C420   1.281       .  A
O402       Zr410   2.433   1_455  S
O402        C421   1.283       .  A
O403        C420   1.282       .  A
O404       Zr412   2.429       .  S
O404        C419   1.282       .  A
O405       Zr410   2.388   1_455  S
O405       Zr412   2.370       .  S
O406       Zr411   2.387       .  S
O406       Zr412   2.373       .  S
O406        H441   0.967       .  S
O407       Zr410   2.395   1_455  S
O407       Zr427   2.401   1_455  S
O407        H444   0.968       .  S
O408       Zr411   2.385       .  S
O408       Zr427   2.396   1_455  S
Zr409       O434   2.447       .  S
Zr409       O428   2.435       .  S
Zr409       O436   2.447       .  S
Zr409       O424   2.428       .  S
Zr409       O415   2.396   1_655  S
Zr409       O416   2.408       .  S
Zr409       O417   2.382       .  S
Zr409       O418   2.382       .  S
Zr410       O429   2.437       .  S
Zr410       O422   2.434       .  S
Zr410       O423   2.429       .  S
Zr410       O416   2.397       .  S
Zr410       O417   2.385       .  S
Zr411       O413   2.434       .  S
Zr411       O435   2.437       .  S
Zr411       O437   2.421       .  S
Zr411       O415   2.390       .  S
Zr411       O418   2.385   1_455  S
Zr412       O438   2.435       .  S
Zr412       O439   2.435       .  S
Zr412       O414   2.437       .  S
Zr412       O415   2.392       .  S
Zr412       O416   2.397   1_455  S
O413        H450   0.990       .  S
O414        H445   0.990       .  S
O414        H459   0.990       .  S
O416        H442   0.964       .  S
O417       Zr427   2.369       .  S
O418       Zr427   2.385       .  S
O418        H443   0.966       .  S
C419       C1588   1.434       .  S
C420       C1618   1.430       .  S
C421       C1646   1.434       .  S
O422        H458   0.990       .  S
O423        C425   1.283       .  A
O424        C425   1.282       .  A
C425       C1630   1.433       .  S
O426       Zr427   2.440   1_455  S
O426        H455   0.990   1_455  S
Zr427       O430   2.437       .  S
Zr427       O431   2.439       .  S
Zr427       O432   2.427       .  S
O428        C433   1.284       .  A
O429        H446   0.990       .  S
O429        H461   0.990       .  S
O430        H447   0.990       .  S
O431        H451   0.990       .  S
O431        H460   0.990       .  S
O432        C433   1.282       .  A
C433       C1602   1.435       .  S
O434        H453   0.990       .  S
O434        H457   0.990       .  S
O435        H449   0.990       .  S
O435        H456   0.990       .  S
O436        C440   1.286   1_655  A
O437        C440   1.281       .  A
O438        H448   0.990       .  S
O439        H452   0.990       .  S
C440       C1574   1.438       .  S
Zr463       O464   2.439       .  S
Zr463       O465   2.427       .  S
Zr463       O466   2.429       .  S
Zr463       O469   2.431       .  S
Zr463       O471   2.377       .  S
Zr463       O472   2.380       .  S
Zr463       O473   2.407       .  S
Zr463       O474   2.400       .  S
O464        H520   0.990       .  S
O464        H528   0.990       .  S
O465        C485   1.282       .  A
O466        C487   1.282       .  A
O467       Zr477   2.436       .  S
O467        C486   1.284       .  A
O468       Zr476   2.437       .  S
O468        C487   1.284       .  A
O469        C486   1.283       .  A
O470       Zr478   2.419       .  S
O470        C485   1.279       .  A
O471       Zr476   2.386       .  S
O471       Zr478   2.367       .  S
O472       Zr477   2.386       .  S
O472       Zr478   2.379       .  S
O472        H507   0.967       .  S
O473       Zr476   2.401       .  S
O473       Zr493   2.402       .  S
O473        H510   0.968       .  S
O474       Zr477   2.387       .  S
O474       Zr493   2.396       .  S
Zr475       O500   2.447       .  S
Zr475       O494   2.433       .  S
Zr475       O502   2.440       .  S
Zr475       O490   2.426       .  S
Zr475       O481   2.398       .  S
Zr475       O482   2.404       .  S
Zr475       O483   2.382       .  S
Zr475       O484   2.382       .  S
Zr476       O495   2.436       .  S
Zr476       O488   2.436       .  S
Zr476       O489   2.439       .  S
Zr476       O482   2.395       .  S
Zr476       O483   2.385       .  S
Zr477       O479   2.434       .  S
Zr477       O501   2.438       .  S
Zr477       O503   2.419       .  S
Zr477       O481   2.394       .  S
Zr477       O484   2.387       .  S
Zr478       O504   2.435       .  S
Zr478       O505   2.435       .  S
Zr478       O480   2.438       .  S
Zr478       O481   2.393       .  S
Zr478       O482   2.393       .  S
O479        H516   0.990       .  S
O480        H511   0.990       .  S
O480        H525   0.990       .  S
O482        H508   0.964       .  S
O483       Zr493   2.371       .  S
O484       Zr493   2.383       .  S
O484        H509   0.967       .  S
C485       C1534   1.429       .  S
C486       C1560   1.438       .  S
C487       C1644   1.435       .  S
O488        H524   0.990       .  S
O489        C491   1.285       .  A
O490        C491   1.282       .  A
C491       C1548   1.436       .  S
O492       Zr493   2.439       .  S
O492        H521   0.990       .  S
Zr493       O496   2.437       .  S
Zr493       O497   2.440       .  S
Zr493       O498   2.428       .  S
O494        C499   1.283       .  A
O495        H512   0.990       .  S
O495        H527   0.990       .  S
O496        H513   0.990       .  S
O497        H517   0.990       .  S
O497        H526   0.989       .  S
O498        C499   1.282       .  A
C499       C1520   1.436       .  S
O500        H519   0.990       .  S
O500        H523   0.990       .  S
O501        H515   0.990       .  S
O501        H522   0.990       .  S
O502        C506   1.285       .  A
O503        C506   1.281       .  A
O504        H514   0.990       .  S
O505        H518   0.990       .  S
C506       C1800   1.434       .  S
Zr529       O530   2.437       .  S
Zr529       O531   2.434       .  S
Zr529       O532   2.425       .  S
Zr529       O535   2.424       .  S
Zr529       O537   2.378       .  S
Zr529       O538   2.378       .  S
Zr529       O539   2.403       .  S
Zr529       O540   2.399       .  S
O530        H586   0.990       .  S
O530        H594   0.990       .  S
O531        C551   1.283       .  A
O532        C553   1.282       .  A
O533       Zr543   2.431       .  S
O533        C552   1.283       .  A
O534       Zr542   2.429       .  S
O534        C553   1.283       .  A
O535        C552   1.282       .  A
O536       Zr544   2.425       .  S
O536        C551   1.281       .  A
O537       Zr542   2.387       .  S
O537       Zr544   2.368       .  S
O538       Zr543   2.383       .  S
O538       Zr544   2.375       .  S
O538        H573   0.967       .  S
O539       Zr542   2.394       .  S
O539       Zr559   2.402       .  S
O539        H576   0.967       .  S
O540       Zr543   2.384       .  S
O540       Zr559   2.395       .  S
Zr541       O566   2.447       .  S
Zr541       O560   2.437       .  S
Zr541       O568   2.441       .  S
Zr541       O556   2.432       .  S
Zr541       O547   2.401       .  S
Zr541       O548   2.407       .  S
Zr541       O549   2.378       .  S
Zr541       O550   2.383       .  S
Zr542       O561   2.437       .  S
Zr542       O554   2.435       .  S
Zr542       O555   2.428       .  S
Zr542       O548   2.396       .  S
Zr542       O549   2.384       .  S
Zr543       O545   2.435       .  S
Zr543       O567   2.439       .  S
Zr543       O569   2.416       .  S
Zr543       O547   2.393       .  S
Zr543       O550   2.389       .  S
Zr544       O570   2.435       .  S
Zr544       O571   2.435       .  S
Zr544       O546   2.437       .  S
Zr544       O547   2.393       .  S
Zr544       O548   2.396       .  S
O545        H582   0.990       .  S
O546        H577   0.990       .  S
O546        H591   0.990       .  S
O548        H574   0.964       .  S
O549       Zr559   2.373       .  S
O550       Zr559   2.382       .  S
O550        H575   0.967       .  S
C551       C1562   1.435       .  S
C552       C1492   1.433       .  S
C553       C1504   1.431       .  S
O554        H590   0.990       .  S
O555        C557   1.282       .  A
O556        C557   1.283       .  A
C557       C1476   1.433       .  S
O558       Zr559   2.440       .  S
O558        H587   0.990       .  S
Zr559       O562   2.437       .  S
Zr559       O563   2.442       .  S
Zr559       O564   2.428       .  S
O560        C565   1.284       .  A
O561        H578   0.990       .  S
O561        H593   0.990       .  S
O562        H579   0.990       .  S
O563        H583   0.990   1_565  S
O563        H592   0.989   1_565  S
O564        C565   1.282       .  A
C565       C1546   1.437   1_565  S
O566        H585   0.990       .  S
O566        H589   0.990       .  S
O567        H581   0.990       .  S
O567        H588   0.990       .  S
O568        C572   1.285       .  A
O569        C572   1.280       .  A
O570        H580   0.990       .  S
O571        H584   0.990       .  S
C572       C1674   1.433       .  S
Zr595       O596   2.437       .  S
Zr595       O597   2.424       .  S
Zr595       O598   2.423       .  S
Zr595       O601   2.431       .  S
Zr595       O603   2.379       .  S
Zr595       O604   2.379       .  S
Zr595       O605   2.403       .  S
Zr595       O606   2.396       .  S
O596        H652   0.990       .  S
O596        H660   0.990       .  S
O597        C617   1.281       .  A
O598        C619   1.281       .  A
O599       Zr609   2.433       .  S
O599        C618   1.284       .  A
O600       Zr608   2.431       .  S
O600        C619   1.283       .  A
O601        C618   1.284       .  A
O602       Zr610   2.432       .  S
O602        C617   1.282       .  A
O603       Zr608   2.389       .  S
O603       Zr610   2.367       .  S
O604       Zr609   2.385       .  S
O604       Zr610   2.375       .  S
O604        H639   0.967       .  S
O605       Zr608   2.396       .  S
O605       Zr625   2.398       .  S
O605        H642   0.968       .  S
O606       Zr609   2.388       .  S
O606       Zr625   2.395       .  S
Zr607       O632   2.442       .  S
Zr607       O626   2.438       .  S
Zr607       O634   2.441       .  S
Zr607       O622   2.426       .  S
Zr607       O613   2.397       .  S
Zr607       O614   2.407       .  S
Zr607       O615   2.377       .  S
Zr607       O616   2.381       .  S
Zr608       O627   2.438       .  S
Zr608       O620   2.435       .  S
Zr608       O621   2.437       .  S
Zr608       O614   2.396       .  S
Zr608       O615   2.381       .  S
Zr609       O611   2.434       .  S
Zr609       O633   2.439       .  S
Zr609       O635   2.419       .  S
Zr609       O613   2.388       .  S
Zr609       O616   2.388       .  S
Zr610       O636   2.436       .  S
Zr610       O637   2.434       .  S
Zr610       O612   2.437       .  S
Zr610       O613   2.394       .  S
Zr610       O614   2.401       .  S
O611        H648   0.990       .  S
O612        H643   0.990       .  S
O612        H657   0.990       .  S
O614        H640   0.964       .  S
O615       Zr625   2.370       .  S
O616       Zr625   2.382       .  S
O616        H641   0.967       .  S
C617       C1450   1.433       .  S
C618       C1590   1.436       .  S
C619       C1506   1.431       .  S
O620        H656   0.990       .  S
O621        C623   1.284       .  A
O622        C623   1.282       .  A
C623       C1604   1.435       .  S
O624       Zr625   2.438       .  S
O624        H653   0.990       .  S
Zr625       O628   2.437       .  S
Zr625       O629   2.437       .  S
Zr625       O630   2.426       .  S
O626        C631   1.284       .  A
O627        H644   0.990       .  S
O627        H659   0.990       .  S
O628        H645   0.990       .  S
O629        H649   0.990       .  S
O629        H658   0.990       .  S
O630        C631   1.282       .  A
C631       C1462   1.437       .  S
O632        H651   0.990       .  S
O632        H655   0.990       .  S
O633        H647   0.990       .  S
O633        H654   0.990       .  S
O634        C638   1.285       .  A
O635        C638   1.281       .  A
O636        H646   0.990       .  S
O637        H650   0.990       .  S
C638       C1434   1.435       .  S
Zr661       O662   2.439       .  S
Zr661       O663   2.428       .  S
Zr661       O664   2.427       .  S
Zr661       O667   2.421       .  S
Zr661       O669   2.378   1_565  S
Zr661       O670   2.381       .  S
Zr661       O671   2.403   1_565  S
Zr661       O672   2.399   1_565  S
O662        H718   0.990       .  S
O662        H726   0.990       .  S
O663        C683   1.282       .  A
O664        C685   1.282   1_565  A
O665       Zr675   2.434   1_565  S
O665        C684   1.283       .  A
O666       Zr674   2.435       .  S
O666        C685   1.283       .  A
O667        C684   1.282       .  A
O668       Zr676   2.423   1_565  S
O668        C683   1.280       .  A
O669       Zr674   2.387       .  S
O669       Zr676   2.368       .  S
O670       Zr675   2.385   1_565  S
O670       Zr676   2.378   1_565  S
O670        H705   0.967       .  S
O671       Zr674   2.395       .  S
O671       Zr691   2.401       .  S
O671        H708   0.968       .  S
O672       Zr675   2.387       .  S
O672       Zr691   2.394       .  S
Zr673       O698   2.447       .  S
Zr673       O692   2.442       .  S
Zr673       O700   2.445       .  S
Zr673       O688   2.433       .  S
Zr673       O679   2.400       .  S
Zr673       O680   2.411       .  S
Zr673       O681   2.379       .  S
Zr673       O682   2.383       .  S
Zr674       O693   2.436       .  S
Zr674       O686   2.433       .  S
Zr674       O687   2.433       .  S
Zr674       O680   2.398       .  S
Zr674       O681   2.385       .  S
Zr675       O677   2.435       .  S
Zr675       O699   2.439   1_545  S
Zr675       O701   2.419       .  S
Zr675       O679   2.392       .  S
Zr675       O682   2.389       .  S
Zr676       O702   2.436   1_545  S
Zr676       O703   2.435       .  S
Zr676       O678   2.438       .  S
Zr676       O679   2.393       .  S
Zr676       O680   2.399       .  S
O677        H714   0.990   1_545  S
O678        H709   0.990   1_545  S
O678        H723   0.990       .  S
O680        H706   0.964       .  S
O681       Zr691   2.369       .  S
O682       Zr691   2.384       .  S
O682        H707   0.967       .  S
C683       C1616   1.430       .  S
C684       C1448   1.433       .  S
C685       C1420   1.435   1_545  S
O686        H722   0.990       .  S
O687        C689   1.284       .  A
O688        C689   1.283       .  A
C689       C1464   1.437       .  S
O690       Zr691   2.437       .  S
O690        H719   0.990       .  S
Zr691       O694   2.436       .  S
Zr691       O695   2.439       .  S
Zr691       O696   2.424       .  S
O692        C697   1.285       .  A
O693        H710   0.990       .  S
O693        H725   0.990       .  S
O694        H711   0.990       .  S
O695        H715   0.990       .  S
O695        H724   0.990       .  S
O696        C697   1.281       .  A
C697       C1632   1.437       .  S
O698        H717   0.990       .  S
O698        H721   0.990       .  S
O699        H713   0.990       .  S
O699        H720   0.990       .  S
O700        C704   1.285       .  A
O701        C704   1.281       .  A
O702        H712   0.990       .  S
O703        H716   0.990       .  S
C704       C1406   1.435       .  S
Zr727       O728   2.439       .  S
Zr727       O729   2.429       .  S
Zr727       O730   2.433       .  S
Zr727       O733   2.429       .  S
Zr727       O735   2.379       .  S
Zr727       O736   2.380       .  S
Zr727       O737   2.404       .  S
Zr727       O738   2.400       .  S
O728        H784   0.990       .  S
O728        H792   0.990       .  S
O729        C749   1.282       .  A
O730        C751   1.283       .  A
O731       Zr741   2.428       .  S
O731        C750   1.282       .  A
O732       Zr740   2.431       .  S
O732        C751   1.283       .  A
O733        C750   1.283       .  A
O734       Zr742   2.423       .  S
O734        C749   1.280       .  A
O735       Zr740   2.392       .  S
O735       Zr742   2.371       .  S
O736       Zr741   2.388       .  S
O736       Zr742   2.374       .  S
O736        H771   0.967       .  S
O737       Zr740   2.398       .  S
O737       Zr757   2.401       .  S
O737        H774   0.967       .  S
O738       Zr741   2.388       .  S
O738       Zr757   2.395       .  S
Zr739       O764   2.446       .  S
Zr739       O758   2.433       .  S
Zr739       O766   2.441       .  S
Zr739       O754   2.435       .  S
Zr739       O745   2.398       .  S
Zr739       O746   2.406       .  S
Zr739       O747   2.380       .  S
Zr739       O748   2.384       .  S
Zr740       O759   2.438       .  S
Zr740       O752   2.434       .  S
Zr740       O753   2.433       .  S
Zr740       O746   2.398       .  S
Zr740       O747   2.384       .  S
Zr741       O743   2.435       .  S
Zr741       O765   2.439       .  S
Zr741       O767   2.418       .  S
Zr741       O745   2.390       .  S
Zr741       O748   2.386       .  S
Zr742       O768   2.436       .  S
Zr742       O769   2.435       .  S
Zr742       O744   2.435       .  S
Zr742       O745   2.389       .  S
Zr742       O746   2.401       .  S
O743        H780   0.990       .  S
O744        H775   0.990       .  S
O744        H789   0.990       .  S
O746        H772   0.964       .  S
O747       Zr757   2.373       .  S
O748       Zr757   2.383       .  S
O748        H773   0.967       .  S
C749       C1490   1.433       .  S
C750       C1532   1.432       .  S
C751       C1422   1.436       .  S
O752        H788   0.989       .  S
O753        C755   1.283       .  A
O754        C755   1.283       .  A
C755       C1518   1.437   1_565  S
O756       Zr757   2.439       .  S
O756        H785   0.990       .  S
Zr757       O760   2.437       .  S
Zr757       O761   2.441       .  S
Zr757       O762   2.424       .  S
O758        C763   1.283       .  A
O759        H776   0.990       .  S
O759        H791   0.990       .  S
O760        H777   0.990       .  S
O761        H781   0.990       .  S
O761        H790   0.989       .  S
O762        C763   1.281       .  A
C763       C1478   1.433       .  S
O764        H783   0.990       .  S
O764        H787   0.990       .  S
O765        H779   0.990       .  S
O765        H786   0.990       .  S
O766        C770   1.285       .  A
O767        C770   1.281       .  A
O768        H778   0.990       .  S
O769        H782   0.990       .  S
C770       C1744   1.433       .  S
Zr793       O794   2.440       .  S
Zr793       O795   2.432       .  S
Zr793       O796   2.430       .  S
Zr793       O799   2.429       .  S
Zr793       O801   2.379       .  S
Zr793       O802   2.379       .  S
Zr793       O803   2.406       .  S
Zr793       O804   2.401       .  S
O794        H850   0.990       .  S
O794        H858   0.990       .  S
O795        C815   1.282       .  A
O796        C817   1.282       .  A
O797       Zr807   2.432       .  S
O797        C816   1.283       .  A
O798       Zr806   2.434       .  S
O798        C817   1.284       .  A
O799        C816   1.283       .  A
O800       Zr808   2.419       .  S
O800        C815   1.280       .  A
O801       Zr806   2.389       .  S
O801       Zr808   2.372       .  S
O802       Zr807   2.386       .  S
O802       Zr808   2.378       .  S
O802        H837   0.967       .  S
O803       Zr806   2.398       .  S
O803       Zr823   2.400       .  S
O803        H840   0.968       .  S
O804       Zr807   2.384       .  S
O804       Zr823   2.396       .  S
Zr805       O830   2.449       .  S
Zr805       O824   2.428       .  S
Zr805       O832   2.452       .  S
Zr805       O820   2.425       .  S
Zr805       O811   2.392       .  S
Zr805       O812   2.407       .  S
Zr805       O813   2.382       .  S
Zr805       O814   2.385       .  S
Zr806       O825   2.437       .  S
Zr806       O818   2.435       .  S
Zr806       O819   2.431       .  S
Zr806       O812   2.399       .  S
Zr806       O813   2.384       .  S
Zr807       O809   2.437       .  S
Zr807       O831   2.437       .  S
Zr807       O833   2.417       .  S
Zr807       O811   2.393       .  S
Zr807       O814   2.387       .  S
Zr808       O834   2.432       .  S
Zr808       O835   2.436       .  S
Zr808       O810   2.436       .  S
Zr808       O811   2.388       .  S
Zr808       O812   2.394       .  S
O809        H846   0.990       .  S
O810        H841   0.990       .  S
O810        H855   0.990       .  S
O812        H838   0.964       .  S
O813       Zr823   2.366       .  S
O814       Zr823   2.385       .  S
O814        H839   0.967       .  S
C815       C1350   1.432       .  S
C816       C1378   1.436       .  S
C817       C1392   1.434       .  S
O818        H854   0.990       .  S
O819        C821   1.283       .  A
O820        C821   1.282       .  A
C821       C1364   1.431       .  S
O822       Zr823   2.438       .  S
O822        H851   0.990       .  S
Zr823       O826   2.437       .  S
Zr823       O827   2.440       .  S
Zr823       O828   2.427       .  S
O824        C829   1.282       .  A
O825        H842   0.990       .  S
O825        H857   0.990       .  S
O826        H843   0.990       .  S
O827        H847   0.990       .  S
O827        H856   0.990       .  S
O828        C829   1.282       .  A
C829       C1338   1.433       .  S
O830        H849   0.990       .  S
O830        H853   0.990       .  S
O831        H845   0.990       .  S
O831        H852   0.990       .  S
O832        C836   1.287       .  A
O833        C836   1.280       .  A
O834        H844   0.990       .  S
O835        H848   0.990       .  S
C836       C1660   1.438       .  S
Zr859       O860   2.438       .  S
Zr859       O861   2.435       .  S
Zr859       O862   2.427       .  S
Zr859       O865   2.425       .  S
Zr859       O867   2.378       .  S
Zr859       O868   2.380       .  S
Zr859       O869   2.405       .  S
Zr859       O870   2.400       .  S
O860        H916   0.990       .  S
O860        H924   0.990       .  S
O861        C881   1.283       .  A
O862        C883   1.282       .  A
O863       Zr873   2.436       .  S
O863        C882   1.284       .  A
O864       Zr872   2.429       .  S
O864        C883   1.283       .  A
O865        C882   1.283       .  A
O866       Zr874   2.424       .  S
O866        C881   1.281       .  A
O867       Zr872   2.389       .  S
O867       Zr874   2.371       .  S
O868       Zr873   2.386       .  S
O868       Zr874   2.375       .  S
O868        H903   0.967       .  S
O869       Zr872   2.396       .  S
O869       Zr889   2.404       .  S
O869        H906   0.967       .  S
O870       Zr873   2.385       .  S
O870       Zr889   2.395       .  S
Zr871       O896   2.447       .  S
Zr871       O890   2.431       .  S
Zr871       O898   2.439       .  S
Zr871       O886   2.428       .  S
Zr871       O877   2.399       .  S
Zr871       O878   2.405       .  S
Zr871       O879   2.379       .  S
Zr871       O880   2.382       .  S
Zr872       O891   2.436       .  S
Zr872       O884   2.434       .  S
Zr872       O885   2.434       .  S
Zr872       O878   2.398       .  S
Zr872       O879   2.381       .  S
Zr873       O875   2.435       .  S
Zr873       O897   2.438       .  S
Zr873       O899   2.422       .  S
Zr873       O877   2.392       .  S
Zr873       O880   2.388       .  S
Zr874       O900   2.436       .  S
Zr874       O901   2.435       .  S
Zr874       O876   2.435       .  S
Zr874       O877   2.391       .  S
Zr874       O878   2.397       .  S
O875        H912   0.990       .  S
O876        H907   0.990       .  S
O876        H921   0.990       .  S
O878        H904   0.964       .  S
O879       Zr889   2.372       .  S
O880       Zr889   2.383       .  S
O880        H905   0.966       .  S
C881       C1280   1.435       .  S
C882       C1310   1.435       .  S
C883       C1394   1.432       .  S
O884        H920   0.990       .  S
O885        C887   1.284       .  A
O886        C887   1.282       .  A
C887       C1322   1.435       .  S
O888       Zr889   2.440       .  S
O888        H917   0.990       .  S
Zr889       O892   2.438       .  S
Zr889       O893   2.442       .  S
Zr889       O894   2.431       .  S
O890        C895   1.283       .  A
O891        H908   0.990       .  S
O891        H923   0.990       .  S
O892        H909   0.990       .  S
O893        H913   0.990       .  S
O893        H922   0.989       .  S
O894        C895   1.283       .  A
C895       C1294   1.436       .  S
O896        H915   0.990       .  S
O896        H919   0.990       .  S
O897        H911   0.990       .  S
O897        H918   0.990       .  S
O898        C902   1.284       .  A
O899        C902   1.282       .  A
O900        H910   0.990       .  S
O901        H914   0.990       .  S
C902       C1436   1.434       .  S
Zr925       O926   2.438       .  S
Zr925       O927   2.427       .  S
Zr925       O928   2.425       .  S
Zr925       O931   2.423       .  S
Zr925       O933   2.376       .  S
Zr925       O934   2.380       .  S
Zr925       O935   2.402       .  S
Zr925       O936   2.400       .  S
O926        H982   0.990       .  S
O926        H990   0.990       .  S
O927        C947   1.282       .  A
O928        C949   1.282       .  A
O929       Zr939   2.437       .  S
O929        C948   1.284       .  A
O930       Zr938   2.429       .  S
O930        C949   1.283       .  A
O931        C948   1.282       .  A
O932       Zr940   2.429       .  S
O932        C947   1.281       .  A
O933       Zr938   2.388       .  S
O933       Zr940   2.369       .  S
O934       Zr939   2.385       .  S
O934       Zr940   2.375       .  S
O934        H969   0.967       .  S
O935       Zr938   2.394       .  S
O935       Zr955   2.402       .  S
O935        H972   0.968       .  S
O936       Zr939   2.385       .  S
O936       Zr955   2.396       .  S
Zr937       O962   2.446       .  S
Zr937       O956   2.433       .  S
Zr937       O964   2.440       .  S
Zr937       O952   2.429       .  S
Zr937       O943   2.398       .  S
Zr937       O944   2.408       .  S
Zr937       O945   2.379       .  S
Zr937       O946   2.386       .  S
Zr938       O957   2.438       .  S
Zr938       O950   2.434       .  S
Zr938       O951   2.430       .  S
Zr938       O944   2.400       .  S
Zr938       O945   2.383       .  S
Zr939       O941   2.435       .  S
Zr939       O963   2.439       .  S
Zr939       O965   2.422       .  S
Zr939       O943   2.391       .  S
Zr939       O946   2.388       .  S
Zr940       O966   2.435       .  S
Zr940       O967   2.435       .  S
Zr940       O942   2.435       .  S
Zr940       O943   2.390       .  S
Zr940       O944   2.403       .  S
O941        H978   0.990       .  S
O942        H973   0.990       .  S
O942        H987   0.990       .  S
O944        H970   0.964       .  S
O945       Zr955   2.369       .  S
O946       Zr955   2.384       .  S
O946        H971   0.967       .  S
C947       C1252   1.433       .  S
C948       C1352   1.434       .  S
C949       C1268   1.431       .  S
O950        H986   0.990       .  S
O951        C953   1.283       .  A
O952        C953   1.282       .  A
C953       C1336   1.433       .  S
O954       Zr955   2.440       .  S
O954        H983   0.990       .  S
Zr955       O958   2.437       .  S
Zr955       O959   2.440       .  S
Zr955       O960   2.429       .  S
O956        C961   1.283       .  A
O957        H974   0.990       .  S
O957        H989   0.990       .  S
O958        H975   0.990       .  S
O959        H979   0.990       .  S
O959        H988   0.989       .  S
O960        C961   1.282       .  A
C961       C1240   1.435       .  S
O962        H981   0.990       .  S
O962        H985   0.990       .  S
O963        H977   0.990       .  S
O963        H984   0.990       .  S
O964        C968   1.285       .  A
O965        C968   1.282       .  A
O966        H976   0.990       .  S
O967        H980   0.990       .  S
C968       C1702   1.434       .  S
Zr991       O992   2.439       .  S
Zr991       O993   2.436       .  S
Zr991       O994   2.420       .  S
Zr991       O997   2.420       .  S
Zr991       O999   2.376       .  S
Zr991      O1000   2.379       .  S
Zr991      O1001   2.404       .  S
Zr991      O1002   2.400       .  S
O992       H1048   0.990       .  S
O992       H1056   0.990       .  S
O993       C1013   1.283       .  A
O994       C1015   1.281       .  A
O995      Zr1005   2.431       .  S
O995       C1014   1.283       .  A
O996      Zr1004   2.430   1_545  S
O996       C1015   1.283       .  A
O997       C1014   1.282       .  A
O998      Zr1006   2.425       .  S
O998       C1013   1.281       .  A
O999      Zr1004   2.386   1_545  S
O999      Zr1006   2.368       .  S
O1000     Zr1005   2.385       .  S
O1000     Zr1006   2.376       .  S
O1000      H1035   0.967       .  S
O1001     Zr1004   2.394   1_545  S
O1001     Zr1021   2.401   1_545  S
O1001      H1038   0.968       .  S
O1002     Zr1005   2.384       .  S
O1002     Zr1021   2.398   1_545  S
Zr1003     O1028   2.448       .  S
Zr1003     O1022   2.432       .  S
Zr1003     O1030   2.446       .  S
Zr1003     O1018   2.430       .  S
Zr1003     O1009   2.395   1_565  S
Zr1003     O1010   2.405   1_565  S
Zr1003     O1011   2.380       .  S
Zr1003     O1012   2.382   1_565  S
Zr1004     O1023   2.437       .  S
Zr1004     O1016   2.434       .  S
Zr1004     O1017   2.431       .  S
Zr1004     O1010   2.398   1_565  S
Zr1004     O1011   2.383       .  S
Zr1005     O1007   2.434       .  S
Zr1005     O1029   2.438       .  S
Zr1005     O1031   2.414       .  S
Zr1005     O1009   2.392       .  S
Zr1005     O1012   2.386       .  S
Zr1006     O1032   2.435       .  S
Zr1006     O1033   2.435       .  S
Zr1006     O1008   2.437       .  S
Zr1006     O1009   2.390       .  S
Zr1006     O1010   2.396       .  S
O1007      H1044   0.990       .  S
O1008      H1039   0.990       .  S
O1008      H1053   0.990       .  S
O1010      H1036   0.965   1_545  S
O1011     Zr1021   2.369       .  S
O1012     Zr1021   2.384   1_545  S
O1012      H1037   0.967   1_545  S
C1013      C1308   1.435       .  S
C1014      C1226   1.431       .  S
C1015      C1266   1.429       .  S
O1016      H1052   0.990       .  S
O1017      C1019   1.283       .  A
O1018      C1019   1.283       .  A
C1019      C1210   1.434       .  S
O1020     Zr1021   2.440   1_545  S
O1020      H1049   0.990       .  S
Zr1021     O1024   2.437       .  S
Zr1021     O1025   2.440   1_565  S
Zr1021     O1026   2.427       .  S
O1022      C1027   1.283       .  A
O1023      H1040   0.990       .  S
O1023      H1055   0.990       .  S
O1024      H1041   0.990       .  S
O1025      H1045   0.990   1_545  S
O1025      H1054   0.990   1_545  S
O1026      C1027   1.282       .  A
C1027      C1324   1.435       .  S
O1028      H1047   0.990       .  S
O1028      H1051   0.990       .  S
O1029      H1043   0.990       .  S
O1029      H1050   0.990       .  S
O1030      C1034   1.285   1_565  A
O1031      C1034   1.280       .  A
O1032      H1042   0.990       .  S
O1033      H1046   0.990       .  S
C1034      C1408   1.434       .  S
Zr1057     O1058   2.439       .  S
Zr1057     O1059   2.429       .  S
Zr1057     O1060   2.429       .  S
Zr1057     O1063   2.430       .  S
Zr1057     O1065   2.381       .  S
Zr1057     O1066   2.380       .  S
Zr1057     O1067   2.403   1_655  S
Zr1057     O1068   2.399       .  S
O1058      H1114   0.990       .  S
O1058      H1122   0.990       .  S
O1059      C1079   1.282       .  A
O1060      C1081   1.282       .  A
O1061     Zr1071   2.428       .  S
O1061      C1080   1.282       .  A
O1062     Zr1070   2.427       .  S
O1062      C1081   1.282   1_455  A
O1063      C1080   1.283       .  A
O1064     Zr1072   2.423       .  S
O1064      C1079   1.280       .  A
O1065     Zr1070   2.390   1_655  S
O1065     Zr1072   2.369       .  S
O1066     Zr1071   2.388       .  S
O1066     Zr1072   2.377       .  S
O1066      H1101   0.967       .  S
O1067     Zr1070   2.399       .  S
O1067     Zr1087   2.399       .  S
O1067      H1104   0.967       .  S
O1068     Zr1071   2.390       .  S
O1068     Zr1087   2.396   1_655  S
Zr1069     O1094   2.446       .  S
Zr1069     O1088   2.437       .  S
Zr1069     O1096   2.444       .  S
Zr1069     O1084   2.427       .  S
Zr1069     O1075   2.397       .  S
Zr1069     O1076   2.407       .  S
Zr1069     O1077   2.377       .  S
Zr1069     O1078   2.384       .  S
Zr1070     O1089   2.437       .  S
Zr1070     O1082   2.436       .  S
Zr1070     O1083   2.433       .  S
Zr1070     O1076   2.395       .  S
Zr1070     O1077   2.382       .  S
Zr1071     O1073   2.436       .  S
Zr1071     O1095   2.439       .  S
Zr1071     O1097   2.421   1_655  S
Zr1071     O1075   2.389   1_655  S
Zr1071     O1078   2.389   1_655  S
Zr1072     O1098   2.435       .  S
Zr1072     O1099   2.435   1_655  S
Zr1072     O1074   2.436       .  S
Zr1072     O1075   2.391   1_655  S
Zr1072     O1076   2.397   1_655  S
O1073      H1110   0.990       .  S
O1074      H1105   0.990       .  S
O1074      H1119   0.990       .  S
O1076      H1102   0.964       .  S
O1077     Zr1087   2.368       .  S
O1078     Zr1087   2.385       .  S
O1078      H1103   0.967       .  S
C1079      C1224   1.432       .  S
C1080      C1282   1.433       .  S
C1081      C1196   1.431       .  S
O1082      H1118   0.990       .  S
O1083      C1085   1.284       .  A
O1084      C1085   1.282       .  A
C1085      C1296   1.434       .  S
O1086     Zr1087   2.439       .  S
O1086      H1115   0.990       .  S
Zr1087     O1090   2.437       .  S
Zr1087     O1091   2.438       .  S
Zr1087     O1092   2.424       .  S
O1088      C1093   1.284       .  A
O1089      H1106   0.990       .  S
O1089      H1121   0.990       .  S
O1090      H1107   0.990       .  S
O1091      H1111   0.990       .  S
O1091      H1120   0.990       .  S
O1092      C1093   1.281       .  A
C1093      C1212   1.436       .  S
O1094      H1113   0.990       .  S
O1094      H1117   0.990       .  S
O1095      H1109   0.990       .  S
O1095      H1116   0.990       .  S
O1096      C1100   1.285       .  A
O1097      C1100   1.281       .  A
O1098      H1108   0.990       .  S
O1099      H1112   0.990       .  S
C1100      C1576   1.437       .  S
Zr1123     O1124   2.437       .  S
Zr1123     O1125   2.429       .  S
Zr1123     O1126   2.429       .  S
Zr1123     O1129   2.431       .  S
Zr1123     O1131   2.378       .  S
Zr1123     O1132   2.381       .  S
Zr1123     O1133   2.406       .  S
Zr1123     O1134   2.397       .  S
O1124      H1180   0.990       .  S
O1124      H1188   0.990       .  S
O1125      C1145   1.282       .  A
O1126      C1147   1.282       .  A
O1127     Zr1137   2.425       .  S
O1127      C1146   1.282       .  A
O1128     Zr1136   2.426       .  S
O1128      C1147   1.282       .  A
O1129      C1146   1.283       .  A
O1130     Zr1138   2.433       .  S
O1130      C1145   1.282       .  A
O1131     Zr1136   2.389       .  S
O1131     Zr1138   2.369       .  S
O1132     Zr1137   2.387       .  S
O1132     Zr1138   2.377       .  S
O1132      H1167   0.967       .  S
O1133     Zr1136   2.398       .  S
O1133     Zr1153   2.401       .  S
O1133      H1170   0.968       .  S
O1134     Zr1137   2.386       .  S
O1134     Zr1153   2.394       .  S
Zr1135     O1160   2.445       .  S
Zr1135     O1154   2.432       .  S
Zr1135     O1162   2.442       .  S
Zr1135     O1150   2.429       .  S
Zr1135     O1141   2.400       .  S
Zr1135     O1142   2.407       .  S
Zr1135     O1143   2.379       .  S
Zr1135     O1144   2.381       .  S
Zr1136     O1155   2.436       .  S
Zr1136     O1148   2.434       .  S
Zr1136     O1149   2.430       .  S
Zr1136     O1142   2.399       .  S
Zr1136     O1143   2.383       .  S
Zr1137     O1139   2.435       .  S
Zr1137     O1161   2.439       .  S
Zr1137     O1163   2.415       .  S
Zr1137     O1141   2.392       .  S
Zr1137     O1144   2.386       .  S
Zr1138     O1164   2.436       .  S
Zr1138     O1165   2.437       .  S
Zr1138     O1140   2.436       .  S
Zr1138     O1141   2.396       .  S
Zr1138     O1142   2.402       .  S
O1139      H1176   0.990       .  S
O1140      H1171   0.990       .  S
O1140      H1185   0.990       .  S
O1142      H1168   0.964       .  S
O1143     Zr1153   2.371       .  S
O1144     Zr1153   2.383       .  S
O1144      H1169   0.967       .  S
C1145      C1380   1.437       .  S
C1146      C1254   1.433       .  S
C1147      C1198   1.432       .  S
O1148      H1184   0.990       .  S
O1149      C1151   1.283       .  A
O1150      C1151   1.282       .  A
C1151      C1238   1.434   1_655  S
O1152     Zr1153   2.439       .  S
O1152      H1181   0.990       .  S
Zr1153     O1156   2.437       .  S
Zr1153     O1157   2.441       .  S
Zr1153     O1158   2.422       .  S
O1154      C1159   1.283       .  A
O1155      H1172   0.990       .  S
O1155      H1187   0.990       .  S
O1156      H1173   0.990       .  S
O1157      H1177   0.990       .  S
O1157      H1186   0.989       .  S
O1158      C1159   1.280       .  A
C1159      C1366   1.432       .  S
O1160      H1179   0.990       .  S
O1160      H1183   0.990       .  S
O1161      H1175   0.990       .  S
O1161      H1182   0.990       .  S
O1162      C1166   1.285       .  A
O1163      C1166   1.280       .  A
O1164      H1174   0.990       .  S
O1165      H1178   0.990       .  S
C1166      C1870   1.433       .  S
C1189      C1197   1.437       .  S
C1189      C1190   1.402       .  A
C1189      C1194   1.400       .  A
C1190      C1191   1.398       .  A
C1190      H1199   1.084       .  S
C1191      C1192   1.400       .  A
C1191      H1200   1.083       .  S
C1192      C1195   1.436       .  S
C1192      C1193   1.401       .  A
C1193      C1194   1.397       .  A
C1193      H1201   1.084       .  S
C1194      H1202   1.083       .  S
C1195      C1196   1.204       .  T
C1197      C1198   1.204       .  T
C1203      C1211   1.441       .  S
C1203      C1204   1.402       .  A
C1203      C1208   1.402       .  A
C1204      C1205   1.400       .  A
C1204      H1213   1.083       .  S
C1205      C1206   1.402       .  A
C1205      H1214   1.083       .  S
C1206      C1209   1.440       .  S
C1206      C1207   1.401       .  A
C1207      C1208   1.398       .  A
C1207      H1215   1.084       .  S
C1208      H1216   1.083       .  S
C1209      C1210   1.206       .  T
C1211      C1212   1.207       .  T
C1217      C1225   1.436       .  S
C1217      C1218   1.400       .  A
C1217      C1222   1.401       .  A
C1218      C1219   1.398       .  A
C1218      H1227   1.083       .  S
C1219      C1220   1.401       .  A
C1219      H1228   1.083       .  S
C1220      C1223   1.437       .  S
C1220      C1221   1.401       .  A
C1221      C1222   1.398       .  A
C1221      H1229   1.083       .  S
C1222      H1230   1.084       .  S
C1223      C1224   1.204       .  T
C1225      C1226   1.204       .  T
C1231      C1239   1.440       .  S
C1231      C1232   1.401       .  A
C1231      C1236   1.402       .  A
C1232      C1233   1.399       .  A
C1232      H1241   1.083       .  S
C1233      C1234   1.402       .  A
C1233      H1242   1.083       .  S
C1234      C1237   1.439       .  S
C1234      C1235   1.401       .  A
C1235      C1236   1.398       .  A
C1235      H1243   1.084       .  S
C1236      H1244   1.084       .  S
C1237      C1238   1.205       .  T
C1239      C1240   1.206       .  T
C1245      C1253   1.438       .  S
C1245      C1246   1.401       .  A
C1245      C1250   1.401       .  A
C1246      C1247   1.398       .  A
C1246      H1255   1.083       .  S
C1247      C1248   1.401       .  A
C1247      H1256   1.083       .  S
C1248      C1251   1.438       .  S
C1248      C1249   1.401       .  A
C1249      C1250   1.398       .  A
C1249      H1257   1.084       .  S
C1250      H1258   1.084       .  S
C1251      C1252   1.205       .  T
C1253      C1254   1.205       .  T
C1259      C1267   1.436       .  S
C1259      C1260   1.401       .  A
C1259      C1264   1.401       .  A
C1260      C1261   1.398       .  A
C1260      H1269   1.083       .  S
C1261      C1262   1.401       .  A
C1261      H1270   1.084       .  S
C1262      C1265   1.434       .  S
C1262      C1263   1.400       .  A
C1263      C1264   1.397       .  A
C1263      H1271   1.083       .  S
C1264      H1272   1.083       .  S
C1265      C1266   1.203       .  T
C1267      C1268   1.204       .  T
C1273      C1281   1.438       .  S
C1273      C1274   1.401       .  A
C1273      C1278   1.401       .  A
C1274      C1275   1.399       .  A
C1274      H1283   1.083       .  S
C1275      C1276   1.401       .  A
C1275      H1284   1.083       .  S
C1276      C1279   1.440       .  S
C1276      C1277   1.402       .  A
C1277      C1278   1.399       .  A
C1277      H1285   1.083       .  S
C1278      H1286   1.084       .  S
C1279      C1280   1.206       .  T
C1281      C1282   1.205       .  T
C1287      C1295   1.439       .  S
C1287      C1288   1.401       .  A
C1287      C1292   1.401       .  A
C1288      C1289   1.399       .  A
C1288      H1297   1.084       .  S
C1289      C1290   1.402       .  A
C1289      H1298   1.083       .  S
C1290      C1293   1.440       .  S
C1290      C1291   1.401       .  A
C1291      C1292   1.399       .  A
C1291      H1299   1.083       .  S
C1292      H1300   1.083       .  S
C1293      C1294   1.206       .  T
C1295      C1296   1.205       .  T
C1301      C1309   1.440       .  S
C1301      C1302   1.402       .  A
C1301      C1306   1.401       .  A
C1302      C1303   1.399       .  A
C1302      H1311   1.083       .  S
C1303      C1304   1.401       .  A
C1303      H1312   1.083       .  S
C1304      C1307   1.440       .  S
C1304      C1305   1.402       .  A
C1305      C1306   1.399       .  A
C1305      H1313   1.084       .  S
C1306      H1314   1.083       .  S
C1307      C1308   1.206       .  T
C1309      C1310   1.206       .  T
C1315      C1323   1.440       .  S
C1315      C1316   1.402       .  A
C1315      C1320   1.401       .  A
C1316      C1317   1.400       .  A
C1316      H1325   1.083       .  S
C1317      C1318   1.402       .  A
C1317      H1326   1.083       .  S
C1318      C1321   1.440       .  S
C1318      C1319   1.401       .  A
C1319      C1320   1.398       .  A
C1319      H1327   1.083       .  S
C1320      H1328   1.083       .  S
C1321      C1322   1.206       .  T
C1323      C1324   1.206       .  T
C1329      C1337   1.438       .  S
C1329      C1330   1.401       .  A
C1329      C1334   1.401       .  A
C1330      C1331   1.397       .  A
C1330      H1339   1.084       .  S
C1331      C1332   1.400       .  A
C1331      H1340   1.083       .  S
C1332      C1335   1.438   1_565  S
C1332      C1333   1.402       .  A
C1333      C1334   1.400       .  A
C1333      H1341   1.084   1_565  S
C1334      H1342   1.083       .  S
C1335      C1336   1.205       .  T
C1337      C1338   1.205   1_455  T
C1343      C1351   1.439       .  S
C1343      C1344   1.401       .  A
C1343      C1348   1.401       .  A
C1344      C1345   1.399       .  A
C1344      H1353   1.083       .  S
C1345      C1346   1.401       .  A
C1345      H1354   1.083       .  S
C1346      C1349   1.438       .  S
C1346      C1347   1.401       .  A
C1347      C1348   1.398       .  A
C1347      H1355   1.084       .  S
C1348      H1356   1.083       .  S
C1349      C1350   1.205       .  T
C1351      C1352   1.206       .  T
C1357      C1365   1.437   1_565  S
C1357      C1358   1.402       .  A
C1357      C1362   1.400       .  A
C1358      C1359   1.398       .  A
C1358      H1367   1.084       .  S
C1359      C1360   1.400       .  A
C1359      H1368   1.084       .  S
C1360      C1363   1.436       .  S
C1360      C1361   1.401       .  A
C1361      C1362   1.398       .  A
C1361      H1369   1.084       .  S
C1362      H1370   1.083   1_565  S
C1363      C1364   1.203       .  T
C1365      C1366   1.204       .  T
C1371      C1379   1.441       .  S
C1371      C1372   1.402       .  A
C1371      C1376   1.402       .  A
C1372      C1373   1.400       .  A
C1372      H1381   1.083       .  S
C1373      C1374   1.402       .  A
C1373      H1382   1.083       .  S
C1374      C1377   1.441       .  S
C1374      C1375   1.401       .  A
C1375      C1376   1.399       .  A
C1375      H1383   1.083       .  S
C1376      H1384   1.083       .  S
C1377      C1378   1.206       .  T
C1379      C1380   1.207       .  T
C1385      C1393   1.437       .  S
C1385      C1386   1.401       .  A
C1385      C1390   1.400       .  A
C1386      C1387   1.398       .  A
C1386      H1395   1.084       .  S
C1387      C1388   1.401       .  A
C1387      H1396   1.083       .  S
C1388      C1391   1.439       .  S
C1388      C1389   1.402       .  A
C1389      C1390   1.398       .  A
C1389      H1397   1.083       .  S
C1390      H1398   1.083       .  S
C1391      C1392   1.205       .  T
C1393      C1394   1.204       .  T
C1399      C1407   1.440       .  S
C1399      C1400   1.403       .  A
C1399      C1404   1.400       .  A
C1400      C1401   1.399   1_556  A
C1400      H1409   1.083       .  S
C1401      C1402   1.400       .  A
C1401      H1410   1.083       .  S
C1402      C1405   1.441       .  S
C1402      C1403   1.403       .  A
C1403      C1404   1.399   1_554  A
C1403      H1411   1.084   1_545  S
C1404      H1412   1.084   1_545  S
C1405      C1406   1.207       .  T
C1407      C1408   1.206       .  T
C1413      C1421   1.440       .  S
C1413      C1414   1.402       .  A
C1413      C1418   1.401       .  A
C1414      C1415   1.400       .  A
C1414      H1423   1.083   1_565  S
C1415      C1416   1.401       .  A
C1415      H1424   1.083   1_565  S
C1416      C1419   1.440       .  S
C1416      C1417   1.401       .  A
C1417      C1418   1.399       .  A
C1417      H1425   1.083       .  S
C1418      H1426   1.083       .  S
C1419      C1420   1.206       .  T
C1421      C1422   1.206       .  T
C1427      C1435   1.440       .  S
C1427      C1428   1.403       .  A
C1427      C1432   1.400       .  A
C1428      C1429   1.399   1_556  A
C1428      H1437   1.084       .  S
C1429      C1430   1.400       .  A
C1429      H1438   1.083       .  S
C1430      C1433   1.441       .  S
C1430      C1431   1.403       .  A
C1431      C1432   1.400   1_554  A
C1431      H1439   1.084       .  S
C1432      H1440   1.083       .  S
C1433      C1434   1.206       .  T
C1435      C1436   1.206       .  T
C1441      C1449   1.438       .  S
C1441      C1442   1.401       .  A
C1441      C1446   1.401       .  A
C1442      C1443   1.398       .  A
C1442      H1451   1.083       .  S
C1443      C1444   1.401       .  A
C1443      H1452   1.083       .  S
C1444      C1447   1.438       .  S
C1444      C1445   1.401       .  A
C1445      C1446   1.399       .  A
C1445      H1453   1.084       .  S
C1446      H1454   1.083       .  S
C1447      C1448   1.205       .  T
C1449      C1450   1.205       .  T
C1455      C1463   1.442       .  S
C1455      C1456   1.402       .  A
C1455      C1460   1.401       .  A
C1456      C1457   1.401       .  A
C1456      H1465   1.083       .  S
C1457      C1458   1.402       .  A
C1457      H1466   1.083       .  S
C1458      C1461   1.442       .  S
C1458      C1459   1.401       .  A
C1459      C1460   1.399       .  A
C1459      H1467   1.083       .  S
C1460      H1468   1.083       .  S
C1461      C1462   1.207       .  T
C1463      C1464   1.207       .  T
C1469      C1477   1.438   1_655  S
C1469      C1470   1.400       .  A
C1469      C1474   1.402       .  A
C1470      C1471   1.399       .  A
C1470      H1479   1.083       .  S
C1471      C1472   1.401       .  A
C1471      H1480   1.083       .  S
C1472      C1475   1.438       .  S
C1472      C1473   1.400       .  A
C1473      C1474   1.398       .  A
C1473      H1481   1.084       .  S
C1474      H1482   1.084       .  S
C1475      C1476   1.205       .  T
C1477      C1478   1.205       .  T
C1483      C1491   1.438       .  S
C1483      C1484   1.401       .  A
C1483      C1488   1.401       .  A
C1484      C1485   1.398       .  A
C1484      H1493   1.083       .  S
C1485      C1486   1.400       .  A
C1485      H1494   1.083       .  S
C1486      C1489   1.438       .  S
C1486      C1487   1.402       .  A
C1487      C1488   1.399       .  A
C1487      H1495   1.084       .  S
C1488      H1496   1.084       .  S
C1489      C1490   1.205       .  T
C1491      C1492   1.205       .  T
C1497      C1505   1.436       .  S
C1497      C1498   1.400       .  A
C1497      C1502   1.401       .  A
C1498      C1499   1.397       .  A
C1498      H1507   1.083       .  S
C1499      C1500   1.400       .  A
C1499      H1508   1.083       .  S
C1500      C1503   1.436       .  S
C1500      C1501   1.401       .  A
C1501      C1502   1.398       .  A
C1501      H1509   1.084       .  S
C1502      H1510   1.084       .  S
C1503      C1504   1.204       .  T
C1505      C1506   1.204       .  T
C1511      C1519   1.441       .  S
C1511      C1512   1.402       .  A
C1511      C1516   1.401       .  A
C1512      C1513   1.400       .  A
C1512      H1521   1.083       .  S
C1513      C1514   1.402       .  A
C1513      H1522   1.083       .  S
C1514      C1517   1.442       .  S
C1514      C1515   1.402       .  A
C1515      C1516   1.399       .  A
C1515      H1523   1.083       .  S
C1516      H1524   1.083       .  S
C1517      C1518   1.207       .  T
C1519      C1520   1.207       .  T
C1525      C1533   1.435       .  S
C1525      C1526   1.401       .  A
C1525      C1530   1.400       .  A
C1526      C1527   1.398       .  A
C1526      H1535   1.084       .  S
C1527      C1528   1.401       .  A
C1527      H1536   1.083       .  S
C1528      C1531   1.437       .  S
C1528      C1529   1.401       .  A
C1529      C1530   1.397       .  A
C1529      H1537   1.083       .  S
C1530      H1538   1.084       .  S
C1531      C1532   1.204       .  T
C1533      C1534   1.203       .  T
C1539      C1547   1.441   1_655  S
C1539      C1540   1.401       .  A
C1539      C1544   1.402       .  A
C1540      C1541   1.399       .  A
C1540      H1549   1.084       .  S
C1541      C1542   1.402       .  A
C1541      H1550   1.083       .  S
C1542      C1545   1.442       .  S
C1542      C1543   1.402       .  A
C1543      C1544   1.401       .  A
C1543      H1551   1.083       .  S
C1544      H1552   1.083   1_655  S
C1545      C1546   1.207       .  T
C1547      C1548   1.207       .  T
C1553      C1561   1.441       .  S
C1553      C1554   1.401       .  A
C1553      C1558   1.402       .  A
C1554      C1555   1.400       .  A
C1554      H1563   1.083       .  S
C1555      C1556   1.402       .  A
C1555      H1564   1.083       .  S
C1556      C1559   1.443       .  S
C1556      C1557   1.402       .  A
C1557      C1558   1.400       .  A
C1557      H1565   1.083       .  S
C1558      H1566   1.084       .  S
C1559      C1560   1.208       .  T
C1561      C1562   1.207       .  T
C1567      C1575   1.442       .  S
C1567      C1568   1.401       .  A
C1567      C1572   1.402       .  A
C1568      C1569   1.398   1_556  A
C1568      H1577   1.084       .  S
C1569      C1570   1.401       .  A
C1569      H1578   1.083   1_455  S
C1570      C1573   1.443       .  S
C1570      C1571   1.403       .  A
C1571      C1572   1.402   1_554  A
C1571      H1579   1.083       .  S
C1572      H1580   1.083       .  S
C1573      C1574   1.208       .  T
C1575      C1576   1.207       .  T
C1581      C1589   1.440       .  S
C1581      C1582   1.402       .  A
C1581      C1586   1.401       .  A
C1582      C1583   1.400       .  A
C1582      H1591   1.083       .  S
C1583      C1584   1.401       .  A
C1583      H1592   1.083       .  S
C1584      C1587   1.439       .  S
C1584      C1585   1.401       .  A
C1585      C1586   1.398       .  A
C1585      H1593   1.084       .  S
C1586      H1594   1.083       .  S
C1587      C1588   1.205       .  T
C1589      C1590   1.206       .  T
C1595      C1603   1.440       .  S
C1595      C1596   1.402       .  A
C1595      C1600   1.401       .  A
C1596      C1597   1.400       .  A
C1596      H1605   1.084       .  S
C1597      C1598   1.402       .  A
C1597      H1606   1.083       .  S
C1598      C1601   1.440       .  S
C1598      C1599   1.401       .  A
C1599      C1600   1.398       .  A
C1599      H1607   1.083       .  S
C1600      H1608   1.083       .  S
C1601      C1602   1.206       .  T
C1603      C1604   1.206       .  T
C1609      C1617   1.435       .  S
C1609      C1610   1.400       .  A
C1609      C1614   1.400       .  A
C1610      C1611   1.397       .  A
C1610      H1619   1.084       .  S
C1611      C1612   1.401       .  A
C1611      H1620   1.084       .  S
C1612      C1615   1.435       .  S
C1612      C1613   1.400       .  A
C1613      C1614   1.397       .  A
C1613      H1621   1.083       .  S
C1614      H1622   1.083       .  S
C1615      C1616   1.203       .  T
C1617      C1618   1.203       .  T
C1623      C1631   1.441       .  S
C1623      C1624   1.401       .  A
C1623      C1628   1.402       .  A
C1624      C1625   1.399       .  A
C1624      H1633   1.083       .  S
C1625      C1626   1.401       .  A
C1625      H1634   1.084       .  S
C1626      C1629   1.438       .  S
C1626      C1627   1.400       .  A
C1627      C1628   1.398       .  A
C1627      H1635   1.084       .  S
C1628      H1636   1.083       .  S
C1629      C1630   1.205       .  T
C1631      C1632   1.207       .  T
C1637      C1645   1.439       .  S
C1637      C1638   1.402       .  A
C1637      C1642   1.401       .  A
C1638      C1639   1.399       .  A
C1638      H1647   1.083       .  S
C1639      C1640   1.401       .  A
C1639      H1648   1.083       .  S
C1640      C1643   1.440       .  S
C1640      C1641   1.402       .  A
C1641      C1642   1.399       .  A
C1641      H1649   1.083       .  S
C1642      H1650   1.083       .  S
C1643      C1644   1.206       .  T
C1645      C1646   1.206       .  T
C1651      C1659   1.444       .  S
C1651      C1652   1.401       .  A
C1651      C1656   1.403       .  A
C1652      C1653   1.401       .  A
C1652      H1661   1.083       .  S
C1653      C1654   1.403       .  A
C1653      H1662   1.083       .  S
C1654      C1657   1.443       .  S
C1654      C1655   1.400       .  A
C1655      C1656   1.400       .  A
C1655      H1663   1.083       .  S
C1656      H1664   1.084       .  S
C1657      C1658   1.207       .  T
C1659      C1660   1.208       .  T
C1665      C1673   1.440       .  S
C1665      C1666   1.401       .  A
C1665      C1670   1.402       .  A
C1666      C1667   1.400       .  A
C1666      H1675   1.083       .  S
C1667      C1668   1.402       .  A
C1667      H1676   1.083       .  S
C1668      C1671   1.441       .  S
C1668      C1669   1.401       .  A
C1669      C1670   1.398       .  A
C1669      H1677   1.084       .  S
C1670      H1678   1.084       .  S
C1671      C1672   1.207       .  T
C1673      C1674   1.206       .  T
C1679      C1687   1.439       .  S
C1679      C1680   1.401       .  A
C1679      C1684   1.402       .  A
C1680      C1681   1.399       .  A
C1680      H1689   1.083       .  S
C1681      C1682   1.402       .  A
C1681      H1690   1.083       .  S
C1682      C1685   1.440       .  S
C1682      C1683   1.401       .  A
C1683      C1684   1.399       .  A
C1683      H1691   1.083       .  S
C1684      H1692   1.084       .  S
C1685      C1686   1.206       .  T
C1687      C1688   1.206       .  T
C1693      C1701   1.440       .  S
C1693      C1694   1.402       .  A
C1693      C1698   1.401       .  A
C1694      C1695   1.397       .  A
C1694      H1703   1.084       .  S
C1695      C1696   1.399       .  A
C1695      H1704   1.084       .  S
C1696      C1699   1.439       .  S
C1696      C1697   1.403       .  A
C1697      C1698   1.400       .  A
C1697      H1705   1.083       .  S
C1698      H1706   1.083       .  S
C1699      C1700   1.205       .  T
C1701      C1702   1.206       .  T
C1707      C1715   1.441   1_565  S
C1707      C1708   1.401       .  A
C1707      C1712   1.402       .  A
C1708      C1709   1.400       .  A
C1708      H1717   1.083       .  S
C1709      C1710   1.401       .  A
C1709      H1718   1.083       .  S
C1710      C1713   1.440       .  S
C1710      C1711   1.401       .  A
C1711      C1712   1.399       .  A
C1711      H1719   1.084       .  S
C1712      H1720   1.084       .  S
C1713      C1714   1.206       .  T
C1715      C1716   1.206       .  T
C1721      C1729   1.439       .  S
C1721      C1722   1.401       .  A
C1721      C1726   1.402       .  A
C1722      C1723   1.399       .  A
C1722      H1731   1.084       .  S
C1723      C1724   1.401       .  A
C1723      H1732   1.083       .  S
C1724      C1727   1.441       .  S
C1724      C1725   1.402       .  A
C1725      C1726   1.400       .  A
C1725      H1733   1.083       .  S
C1726      H1734   1.084       .  S
C1727      C1728   1.206       .  T
C1729      C1730   1.206       .  T
C1735      C1743   1.439       .  S
C1735      C1736   1.400       .  A
C1735      C1740   1.403       .  A
C1736      C1737   1.399       .  A
C1736      H1745   1.083       .  S
C1737      C1738   1.403       .  A
C1737      H1746   1.084       .  S
C1738      C1741   1.439       .  S
C1738      C1739   1.399       .  A
C1739      C1740   1.398       .  A
C1739      H1747   1.083       .  S
C1740      H1748   1.084       .  S
C1741      C1742   1.205       .  T
C1743      C1744   1.205       .  T
C1749      C1757   1.438       .  S
C1749      C1750   1.401       .  A
C1749      C1754   1.401       .  A
C1750      C1751   1.399       .  A
C1750      H1759   1.083       .  S
C1751      C1752   1.401       .  A
C1751      H1760   1.083       .  S
C1752      C1755   1.439   1_655  S
C1752      C1753   1.401       .  A
C1753      C1754   1.398       .  A
C1753      H1761   1.084       .  S
C1754      H1762   1.084       .  S
C1755      C1756   1.205       .  T
C1757      C1758   1.205       .  T
C1763      C1771   1.438       .  S
C1763      C1764   1.401       .  A
C1763      C1768   1.401       .  A
C1764      C1765   1.398       .  A
C1764      H1773   1.083       .  S
C1765      C1766   1.401       .  A
C1765      H1774   1.083       .  S
C1766      C1769   1.438       .  S
C1766      C1767   1.401       .  A
C1767      C1768   1.398       .  A
C1767      H1775   1.083       .  S
C1768      H1776   1.083       .  S
C1769      C1770   1.205       .  T
C1771      C1772   1.205       .  T
C1777      C1785   1.436   1_545  S
C1777      C1778   1.401       .  A
C1777      C1782   1.401       .  A
C1778      C1779   1.398       .  A
C1778      H1787   1.084       .  S
C1779      C1780   1.401       .  A
C1779      H1788   1.084       .  S
C1780      C1783   1.436       .  S
C1780      C1781   1.400       .  A
C1781      C1782   1.397       .  A
C1781      H1789   1.083       .  S
C1782      H1790   1.083       .  S
C1783      C1784   1.204       .  T
C1785      C1786   1.204       .  T
C1791      C1799   1.440       .  S
C1791      C1792   1.402       .  A
C1791      C1796   1.401       .  A
C1792      C1793   1.401       .  A
C1792      H1801   1.083       .  S
C1793      C1794   1.402       .  A
C1793      H1802   1.083       .  S
C1794      C1797   1.440       .  S
C1794      C1795   1.401       .  A
C1795      C1796   1.397       .  A
C1795      H1803   1.084       .  S
C1796      H1804   1.084       .  S
C1797      C1798   1.206       .  T
C1799      C1800   1.206       .  T
C1805      C1813   1.442       .  S
C1805      C1806   1.402       .  A
C1805      C1810   1.401       .  A
C1806      C1807   1.401       .  A
C1806      H1815   1.084       .  S
C1807      C1808   1.403       .  A
C1807      H1816   1.084       .  S
C1808      C1811   1.442       .  S
C1808      C1809   1.401       .  A
C1809      C1810   1.398       .  A
C1809      H1817   1.083       .  S
C1810      H1818   1.083       .  S
C1811      C1812   1.207       .  T
C1813      C1814   1.207       .  T
C1819      C1827   1.441       .  S
C1819      C1820   1.401       .  A
C1819      C1824   1.402       .  A
C1820      C1821   1.398       .  A
C1820      H1829   1.084       .  S
C1821      C1822   1.401       .  A
C1821      H1830   1.083       .  S
C1822      C1825   1.442       .  S
C1822      C1823   1.403       .  A
C1823      C1824   1.401       .  A
C1823      H1831   1.083       .  S
C1824      H1832   1.083       .  S
C1825      C1826   1.207       .  T
C1827      C1828   1.207       .  T
C1833      C1841   1.439       .  S
C1833      C1834   1.401       .  A
C1833      C1838   1.401       .  A
C1834      C1835   1.399       .  A
C1834      H1843   1.083       .  S
C1835      C1836   1.401       .  A
C1835      H1844   1.083       .  S
C1836      C1839   1.439       .  S
C1836      C1837   1.401       .  A
C1837      C1838   1.399       .  A
C1837      H1845   1.083       .  S
C1838      H1846   1.083       .  S
C1839      C1840   1.205       .  T
C1841      C1842   1.205       .  T
C1847      C1855   1.438   1_655  S
C1847      C1848   1.401       .  A
C1847      C1852   1.401       .  A
C1848      C1849   1.398       .  A
C1848      H1857   1.083       .  S
C1849      C1850   1.401       .  A
C1849      H1858   1.083       .  S
C1850      C1853   1.439       .  S
C1850      C1851   1.402       .  A
C1851      C1852   1.399       .  A
C1851      H1859   1.083       .  S
C1852      H1860   1.084       .  S
C1853      C1854   1.205       .  T
C1855      C1856   1.205       .  T
C1861      C1869   1.439       .  S
C1861      C1862   1.400       .  A
C1861      C1866   1.402       .  A
C1862      C1863   1.396       .  A
C1862      H1871   1.084       .  S
C1863      C1864   1.401       .  A
C1863      H1872   1.084       .  S
C1864      C1867   1.438       .  S
C1864      C1865   1.401       .  A
C1865      C1866   1.401       .  A
C1865      H1873   1.083       .  S
C1866      H1874   1.083       .  S
C1867      C1868   1.205       .  T
C1869      C1870   1.205       .  T
C1875      C1883   1.441       .  S
C1875      C1876   1.402       .  A
C1875      C1880   1.401       .  A
C1876      C1877   1.400       .  A
C1876      H1885   1.083       .  S
C1877      C1878   1.402       .  A
C1877      H1886   1.083       .  S
C1878      C1881   1.442       .  S
C1878      C1879   1.401       .  A
C1879      C1880   1.399       .  A
C1879      H1887   1.083       .  S
C1880      H1888   1.083       .  S
C1881      C1882   1.207       .  T
C1883      C1884   1.206       .  T
C1889      C1897   1.438   1_565  S
C1889      C1890   1.401       .  A
C1889      C1894   1.401       .  A
C1890      C1891   1.399       .  A
C1890      H1899   1.084       .  S
C1891      C1892   1.402       .  A
C1891      H1900   1.083       .  S
C1892      C1895   1.439       .  S
C1892      C1893   1.401       .  A
C1893      C1894   1.398       .  A
C1893      H1901   1.083       .  S
C1894      H1902   1.084   1_565  S
C1895      C1896   1.206       .  T
C1897      C1898   1.205       .  T
C1903      C1911   1.440       .  S
C1903      C1904   1.401       .  A
C1903      C1908   1.402       .  A
C1904      C1905   1.399       .  A
C1904      H1913   1.084       .  S
C1905      C1906   1.402       .  A
C1905      H1914   1.083       .  S
C1906      C1909   1.441       .  S
C1906      C1907   1.401       .  A
C1907      C1908   1.400       .  A
C1907      H1915   1.083       .  S
C1908      H1916   1.083       .  S
C1909      C1910   1.207       .  T
C1911      C1912   1.206       .  T
C1917      C1925   1.441       .  S
C1917      C1918   1.402       .  A
C1917      C1922   1.402       .  A
C1918      C1919   1.400       .  A
C1918      H1927   1.083       .  S
C1919      C1920   1.402       .  A
C1919      H1928   1.084       .  S
C1920      C1923   1.441       .  S
C1920      C1921   1.401       .  A
C1921      C1922   1.399       .  A
C1921      H1929   1.083       .  S
C1922      H1930   1.083       .  S
C1923      C1924   1.207       .  T
C1925      C1926   1.207       .  T
C1931      C1939   1.436       .  S
C1931      C1932   1.401       .  A
C1931      C1936   1.400       .  A
C1932      C1933   1.397       .  A
C1932      H1941   1.084       .  S
C1933      C1934   1.400   1_455  A
C1933      H1942   1.084   1_455  S
C1934      C1937   1.435       .  S
C1934      C1935   1.401   1_655  A
C1935      C1936   1.398       .  A
C1935      H1943   1.083       .  S
C1936      H1944   1.083       .  S
C1937      C1938   1.203       .  T
C1939      C1940   1.204       .  T
