geometry optimzed in LAMMPS
_audit_creation_date              2020-12-01 
_audit_creation_method            'lammps2cif' 
_symmetry_space_group_name_H-M    'P1' 
_symmetry_Int_Tables_number       1 
_symmetry_cell_setting            triclinic 
loop_ 
_symmetry_equiv_pos_as_xyz 
  x,y,z 
_cell_length_a                    39.20754347 
_cell_length_b                    39.07552350402899 
_cell_length_c                    41.24727711107856 
_cell_angle_alpha                 90.00203779915064 
_cell_angle_beta                  90.06440736030787 
_cell_angle_gamma                 89.31418184695525 
loop_ 
_atom_site_label 
_atom_site_type_symbol 
_atom_site_fract_x 
_atom_site_fract_y 
_atom_site_fract_z 
_atom_site_charge 
O1          O  0.83421000  0.40829956  0.88553601    -0.57600
C2          C  0.84292265  0.48005723  0.95045592     0.75000
O3          O  0.83176679  0.51506872  0.87861783    -0.58800
C4          C  0.82988533  0.40721210  0.85517961     0.75000
C5          C  0.73641470  0.44410408  0.91501609     0.77400
Cd6        Cd  0.80353536  0.46276231  0.89382892     1.37500
O7          O  0.81168839  0.48823648  0.94772653    -0.57600
O8          O  0.76126255  0.42320324  0.91527249    -0.56400
C9          C  0.81278780  0.52310679  0.85502622     0.77400
O10         O  0.74260139  0.47384944  0.90465941    -0.58800
O11         O  0.85549525  0.46252805  0.92750786    -0.57200
O12         O  0.81321693  0.43188054  0.84281282    -0.57200
O13         O  0.78823033  0.50323800  0.84919689    -0.56400
O14         O  0.05444162  0.64766262  0.21112722    -0.57600
C15         C  0.98388929  0.60000310  0.11773320     0.75000
O16         O  0.98425714  0.61480727  0.21329886    -0.58800
C17         C  0.07375554  0.62373102  0.20113380     0.75000
C18         C  0.03030474  0.70546443  0.13792629     0.77400
Cd19       Cd  0.01216425  0.64230061  0.16807571     1.37500
O20         O  0.00412478  0.58758732  0.13863114    -0.57600
O21         O  0.04742052  0.67823611  0.13337830    -0.56400
C22         C  0.96234646  0.63797970  0.21891300     0.77400
O23         O  0.00530566  0.70363641  0.15722300    -0.58800
O24         O  0.97681032  0.63148926  0.12037862    -0.57200
O25         O  0.06536956  0.60958900  0.17470464    -0.57200
O26         O  0.96298891  0.66400985  0.20067493    -0.56400
O27         O  0.51336215  0.71097033  0.14753391    -0.57600
C28         C  0.62057504  0.69944942  0.21646657     0.75000
O29         O  0.52023839  0.68925790  0.24205729    -0.58800
C30         C  0.53322130  0.73302266  0.13570157     0.75000
C31         C  0.54351224  0.62060041  0.16942757     0.77400
Cd32       Cd  0.55279424  0.69061875  0.19026889     1.37500
O33         O  0.61434428  0.70355172  0.18659528    -0.57600
O34         O  0.52267103  0.63513886  0.18846949    -0.56400
C35         C  0.51234615  0.72076994  0.24153289     0.77400
O36         O  0.56864886  0.63831626  0.16065806    -0.58800
O37         O  0.59592533  0.68916277  0.23338748    -0.57200
O38         O  0.56234094  0.73490037  0.14877078    -0.57200
O39         O  0.52255801  0.73736933  0.21715480    -0.56400
O40         O  0.43787019  0.92954054  0.97213162    -0.57600
C41         C  0.42523357  0.00529651  0.90215366     0.75000
O42         O  0.39052139  0.90283500  0.87359724    -0.58800
C43         C  0.43953575  0.89727877  0.96935605     0.75000
C44         C  0.33493330  0.93798473  0.94540709     0.77400
Cd45       Cd  0.40384276  0.93798382  0.92164977     1.37500
O46         O  0.39680130  0.99333703  0.89349136    -0.57600
O47         O  0.35829857  0.95408578  0.95982280    -0.56400
C48         C  0.42080941  0.90169250  0.86305331     0.77400
O49         O  0.34321189  0.92361565  0.91904318    -0.58800
O50         O  0.44233855  0.98726670  0.92196469    -0.57200
O51         O  0.42385819  0.88455150  0.94558058    -0.57200
O52         O  0.44273437  0.91759144  0.87956285    -0.56400
O53         O  0.53444906  0.03607523  0.15442335    -0.57600
C54         C  0.60086053  0.05145203  0.07634249     0.75000
O55         O  0.56395579  0.14254032  0.14928094    -0.58800
C56         C  0.50564966  0.05062909  0.15139590     0.75000
C57         C  0.61424096  0.07141679  0.18468321     0.77400
Cd58       Cd  0.56772246  0.08235582  0.13164991     1.37500
O59         O  0.57263690  0.04041730  0.08642210    -0.57600
O60         O  0.58456619  0.05918495  0.18442984    -0.56400
C61         C  0.55030675  0.15351905  0.12342687     0.77400
O62         O  0.62205255  0.09029635  0.16099832    -0.58800
O63         O  0.61228809  0.07728523  0.09092350    -0.57200
O64         O  0.50533078  0.07927857  0.13701998    -0.57200
O65         O  0.54462498  0.13136879  0.10173911    -0.56400
O66         O  0.75597950  0.95004417  0.88008942    -0.57600
C67         C  0.79200904  0.89171984  0.82471728     0.75000
O68         O  0.81205414  0.98301335  0.80697775    -0.58800
C69         C  0.76250811  0.96414021  0.90688826     0.75000
C70         C  0.88204374  0.94166229  0.88508414     0.77400
Cd71       Cd  0.81412135  0.95144797  0.85895701     1.37500
O72         O  0.81162293  0.91315743  0.81148033    -0.57600
O73         O  0.85840455  0.92072351  0.89039194    -0.56400
C74         C  0.80140978  0.01085759  0.81922285     0.77400
O75         O  0.87454246  0.96685376  0.86711415    -0.58800
O76         O  0.78502311  0.89695649  0.85419813    -0.57200
O77         O  0.79350783  0.97116760  0.91210771    -0.57200
O78         O  0.79912371  0.01167826  0.84977640    -0.56400
O79         O  0.11604631  0.24035612  0.16602910    -0.57600
C80         C  0.00654107  0.23287223  0.21775190     0.75000
O81         O  0.10690640  0.15818130  0.18298005    -0.58800
C82         C  0.09694872  0.24800326  0.14231189     0.75000
C83         C  0.10873408  0.23109280  0.25505042     0.77400
Cd84       Cd  0.07314213  0.20955739  0.19758460     1.37500
O85         O  0.02273924  0.21002145  0.23331384    -0.57600
O86         O  0.09786761  0.20081003  0.25262406    -0.56400
C87         C  0.08184794  0.13967787  0.17560039     0.77400
O88         O  0.10378183  0.25039955  0.23088675    -0.58800
O89         O  0.01997483  0.24253860  0.19147901    -0.57200
O90         O  0.06657173  0.23744405  0.14403938    -0.57200
O91         O  0.05262114  0.15301464  0.17967582    -0.56400
O92         O  0.19918692  0.46427310  0.90358458    -0.57600
C93         C  0.19583049  0.37164561  0.94997827     0.75000
O94         O  0.24393735  0.37677449  0.85039291    -0.58800
C95         C  0.21607282  0.47980372  0.88208532     0.75000
C96         C  0.30012840  0.40801105  0.92642948     0.77400
Cd97       Cd  0.23198015  0.40981242  0.90058237     1.37500
O98         O  0.19267989  0.40382170  0.94723000    -0.57600
O99         O  0.27619752  0.42477243  0.93983214    -0.56400
C100        C  0.21315985  0.37692885  0.84108374     0.77400
O101        O  0.29269537  0.39276650  0.90036575    -0.58800
O102        O  0.21525296  0.35737462  0.92949361    -0.57200
O103        O  0.24152675  0.46364898  0.87080955    -0.57200
O104        O  0.19171711  0.39127236  0.85965229    -0.56400
C105        C  0.09052439  0.93115438  0.02978950    -0.02300
C106        C  0.52533132  0.39808877  0.04900855    -0.02300
O107        O  0.06423175  0.27845999  0.65407518    -0.57600
C108        C  0.97645770  0.28440345  0.59853649     0.75000
O109        O  0.00069237  0.18589217  0.65054466    -0.58800
C110        C  0.07536307  0.26118496  0.67793638     0.75000
C111        C  0.96676099  0.26557207  0.70364812     0.77400
Cd112      Cd  0.00986231  0.24741666  0.65019640     1.37500
O113        O  0.00606135  0.29220247  0.60807941    -0.57600
O114        O  0.98932024  0.28524363  0.69260327    -0.56400
C115        C  0.01873322  0.17965249  0.62576300     0.77400
O116        O  0.96418443  0.23671766  0.69002705    -0.58800
O117        O  0.96287599  0.25938931  0.61279913    -0.57200
O118        O  0.05693917  0.23677261  0.68735987    -0.57200
O119        O  0.03300708  0.20495768  0.61256417    -0.56400
O120        O  0.84649217  0.43310189  0.41337272    -0.57600
C121        C  0.81570086  0.49777416  0.34290466     0.75000
O122        O  0.80517474  0.38363497  0.32731250    -0.58800
C123        C  0.84410608  0.40171193  0.42060020     0.75000
C124        C  0.73667871  0.43099291  0.38947131     0.77400
Cd125      Cd  0.80586175  0.43033095  0.36780335     1.37500
O126        O  0.79731033  0.47629163  0.32827463    -0.57600
O127        O  0.74460688  0.41738515  0.36261958    -0.56400
C128        C  0.83586222  0.38788186  0.31867166     0.77400
O129        O  0.76071329  0.44389512  0.40565718    -0.58800
O130        O  0.82819315  0.48838015  0.36980861    -0.57200
O131        O  0.82291561  0.38450863  0.40443840    -0.57200
O132        O  0.85158004  0.41214105  0.33205172    -0.56400
O133        O  0.53020582  0.78347088  0.65074818    -0.57600
C134        C  0.60938301  0.77627067  0.58669012     0.75000
O135        O  0.61176296  0.78425837  0.67503348    -0.58800
C136        C  0.52279027  0.77168771  0.67841312     0.75000
C137        C  0.56089948  0.67945257  0.61824731     0.77400
Cd138      Cd  0.57942236  0.74533040  0.64234560     1.37500
O139        O  0.62126450  0.74903952  0.59907425    -0.57600
O140        O  0.54568029  0.70651947  0.60910859    -0.56400
C141        C  0.62958527  0.76228487  0.69001298     0.77400
O142        O  0.58377036  0.68289797  0.63970971    -0.58800
O143        O  0.58283827  0.78903723  0.59957307    -0.57200
O144        O  0.53918463  0.74518450  0.68728891    -0.57200
O145        O  0.62540946  0.73122338  0.68219816    -0.56400
O146        O  0.76676532  0.94757983  0.36110710    -0.57600
C147        C  0.75824743  0.87985712  0.41674645     0.75000
O148        O  0.79786178  0.83579009  0.35099396    -0.58800
C149        C  0.77701496  0.95720568  0.33356581     0.75000
C150        C  0.87215012  0.90786416  0.38666749     0.77400
Cd151      Cd  0.80351050  0.89670783  0.36450174     1.37500
O152        O  0.74752836  0.88608014  0.38845092    -0.57600
O153        O  0.84864855  0.93011811  0.38943114    -0.56400
C154        C  0.79249479  0.84045866  0.32110161     0.77400
O155        O  0.86409569  0.88052507  0.37233792    -0.58800
O156        O  0.79009837  0.88210656  0.42115173    -0.57200
O157        O  0.80145005  0.93998885  0.32143563    -0.57200
O158        O  0.79573752  0.87078219  0.31091472    -0.56400
O159        O  0.05025213  0.61399600  0.68585952    -0.57600
C160        C  0.97250536  0.64946483  0.72837147     0.75000
O161        O  0.05361120  0.66010405  0.76695972    -0.58800
C162        C  0.06426487  0.62488100  0.66035037     0.75000
C163        C  0.03647473  0.73902044  0.68447821     0.77400
Cd164      Cd  0.03967950  0.67040610  0.70985232     1.37500
O165        O  0.98567880  0.67604094  0.74043362    -0.57600
O166        O  0.01744954  0.71546183  0.67420068    -0.56400
C167        C  0.08488656  0.65351923  0.76257434     0.77400
O168        O  0.05632440  0.73106756  0.70758459    -0.58800
O169        O  0.98943178  0.63447612  0.70640608    -0.57200
O170        O  0.06666493  0.65699977  0.65755439    -0.57200
O171        O  0.09644406  0.65925385  0.73452772    -0.56400
O172        O  0.20422607  0.49535056  0.47734205    -0.57600
C173        C  0.18380439  0.38847574  0.41963748     0.75000
O174        O  0.18424506  0.50928849  0.40808367    -0.58800
C175        C  0.17742297  0.48272866  0.48917188     0.75000
C176        C  0.28012933  0.45668394  0.43898702     0.77400
Cd177      Cd  0.20801044  0.45638921  0.43125831     1.37500
O178        O  0.21283647  0.39325314  0.43218418    -0.57600
O179        O  0.26002481  0.45588242  0.46289366    -0.56400
C180        C  0.19008299  0.50163587  0.37885999     0.77400
O181        O  0.26693463  0.45596508  0.41101842    -0.58800
O182        O  0.16597631  0.41496310  0.41403174    -0.57200
O183        O  0.16473944  0.45759697  0.47420773    -0.57200
O184        O  0.20530808  0.47345283  0.37389937    -0.56400
O185        O  0.61654712  0.11987708  0.68360941    -0.57600
C186        C  0.54423394  0.11773998  0.62259568     0.75000
O187        O  0.52952211  0.12653496  0.70382094    -0.58800
C188        C  0.63988445  0.14110335  0.68876281     0.75000
C189        C  0.55520873  0.22775492  0.64801114     0.77400
Cd190      Cd  0.57017887  0.16034700  0.67353060     1.37500
O191        O  0.52625587  0.12782163  0.64632142    -0.57600
O192        O  0.55524149  0.22249473  0.67828334    -0.56400
C193        C  0.53187226  0.14193369  0.73061046     0.77400
O194        O  0.56282397  0.20240566  0.63040191    -0.58800
O195        O  0.57474958  0.12810284  0.62203307    -0.57200
O196        O  0.63147355  0.17232519  0.68608312    -0.57200
O197        O  0.55151289  0.16741708  0.73116465    -0.56400
O198        O  0.41519059  0.95343964  0.44999961    -0.57600
C199        C  0.39962559  0.88579834  0.38851105     0.75000
O200        O  0.31366766  0.97270663  0.40767420    -0.58800
C201        C  0.41754771  0.98562846  0.45181728     0.75000
C202        C  0.38046300  0.98428446  0.34193987     0.77400
Cd203      Cd  0.37373413  0.95296318  0.40494523     1.37500
O204        O  0.41890754  0.91068681  0.39453196    -0.57600
O205        O  0.39376573  0.99679310  0.36712146    -0.56400
C206        C  0.30576493  0.95451243  0.43178954     0.77400
O207        O  0.36258907  0.95794801  0.34628105    -0.58800
O208        O  0.36794237  0.89164852  0.39125554    -0.57200
O209        O  0.39872018  0.00252051  0.43248044    -0.57200
O210        O  0.32957664  0.93664717  0.44405889    -0.56400
C211        C  0.07188945  0.94225877  0.53766114    -0.02300
C212        C  0.52179507  0.44470164  0.51829871    -0.02300
C213        C  0.15226732  0.92166136  0.48471728    -0.11200
C214        C  0.17128359  0.95135627  0.48838188     0.15400
C215        C  0.15819790  0.97843939  0.50701282     0.02300
C216        C  0.12710369  0.97477186  0.52286635    -0.15500
C217        C  0.10767044  0.94434788  0.52101037    -0.10300
C218        C  0.12069457  0.91775704  0.50022065     0.09000
C219        C  0.20567743  0.95251757  0.47404528     0.10000
S220        S  0.17998176  0.01861190  0.51150618    -0.24700
H221        H  0.11794797  0.99718495  0.53535210     0.20300
S222        S  0.09942333  0.87725732  0.49456395    -0.30400
H223        H  0.16286485  0.90099069  0.47027315     0.10600
C224        C  0.23488098  0.94648739  0.49314152     0.03800
C225        C  0.26714147  0.94730256  0.47864448    -0.12700
C226        C  0.27084736  0.95407186  0.44537293    -0.08300
C227        C  0.24125823  0.95976819  0.42625656     0.07300
C228        C  0.20908211  0.95913337  0.44086146    -0.13400
S229        S  0.23093815  0.93717644  0.53588434    -0.30300
H230        H  0.28963413  0.94278563  0.49335137     0.11500
S231        S  0.24247961  0.96623033  0.38301973    -0.27400
H232        H  0.18645526  0.96339522  0.42621280     0.08700
H233        H  0.11914340  0.86523316  0.46838338     0.27200
H234        H  0.26606527  0.93545719  0.54273891     0.22000
H235        H  0.26692801  0.94023491  0.37746554     0.27300
H236        H  0.19571346  0.01823965  0.48091254     0.16100
C237        C  0.52973319  0.29741338  0.58845880    -0.11200
C238        C  0.54219253  0.32653972  0.60408015     0.15400
C239        C  0.55591341  0.32360694  0.63559959     0.02300
C240        C  0.55814770  0.29128122  0.65024065    -0.15500
C241        C  0.54770074  0.26173354  0.63371607    -0.10300
C242        C  0.53226863  0.26506496  0.60284832     0.09000
C243        C  0.54095351  0.35910973  0.58593856     0.10000
S244        S  0.57193668  0.35974223  0.65788943    -0.24700
H245        H  0.56966876  0.28899754  0.67404617     0.20300
S246        S  0.51463711  0.22860613  0.58192215    -0.30400
H247        H  0.51840912  0.30015281  0.56462115     0.10600
C248        C  0.56237233  0.36414281  0.55928028     0.03800
C249        C  0.55679478  0.39225339  0.53901329    -0.12700
C250        C  0.52913787  0.41551908  0.54355980    -0.08300
C251        C  0.51012541  0.41204649  0.57312681     0.07300
C252        C  0.51612983  0.38370868  0.59347610    -0.13400
S253        S  0.59702240  0.33446149  0.55093360    -0.30300
H254        H  0.57489240  0.39575958  0.51989886     0.11500
S255        S  0.47502410  0.44032318  0.58383003    -0.27400
H256        H  0.50021389  0.37954909  0.61448369     0.08700
H257        H  0.50523134  0.24577491  0.55324021     0.27200
H258        H  0.61116135  0.35220653  0.52459553     0.22000
H259        H  0.46764678  0.42627416  0.61437796     0.27300
H260        H  0.58198859  0.37903685  0.63086339     0.16100
C261        C  0.48150503  0.00417283  0.51979258    -0.11200
C262        C  0.48025954  0.04000318  0.52026343     0.15400
C263        C  0.46078271  0.05761488  0.49672454     0.02300
C264        C  0.44093755  0.03914111  0.47489255    -0.15500
C265        C  0.44067546  0.00311982  0.47508679    -0.10300
C266        C  0.46227318  0.98541597  0.49731619     0.09000
C267        C  0.49693041  0.05832535  0.54726024     0.10000
S268        S  0.45953551  0.10371051  0.49381024    -0.24700
H269        H  0.42541004  0.05327396  0.45762923     0.20300
S270        S  0.46562713  0.93920628  0.49803220    -0.30400
H271        H  0.49687457  0.99095451  0.53778739     0.10600
C272        C  0.47733151  0.07409835  0.57174620     0.03800
C273        C  0.49363882  0.09288146  0.59597147    -0.12700
C274        C  0.52936725  0.09574994  0.59691035    -0.08300
C275        C  0.54905968  0.07809110  0.57325113     0.07300
C276        C  0.53259521  0.06004211  0.54848791    -0.13400
S277        S  0.43144881  0.06995481  0.57242700    -0.30300
H278        H  0.47825982  0.10571045  0.61414958     0.11500
S279        S  0.59499438  0.07653149  0.57363075    -0.27400
H280        H  0.54766727  0.04714035  0.53006449     0.08700
H281        H  0.49081953  0.93649311  0.52223306     0.27200
H282        H  0.42562931  0.08851211  0.60115118     0.22000
H283        H  0.59718656  0.06928852  0.60700477     0.27300
H284        H  0.49232506  0.10908672  0.50651123     0.16100
C285        C  0.36600025  0.47662795  0.47476008    -0.11200
C286        C  0.38692710  0.45364616  0.45773783     0.15400
C287        C  0.37324630  0.43389992  0.43234080     0.02300
C288        C  0.33834880  0.43639855  0.42559681    -0.15500
C289        C  0.31709296  0.45823698  0.44376781    -0.10300
C290        C  0.33134852  0.47946467  0.46779172     0.09000
C291        C  0.42196052  0.44876465  0.46954705     0.10000
S292        S  0.39864089  0.40428512  0.40871430    -0.24700
H293        H  0.32752246  0.42030361  0.40691901     0.20300
S294        S  0.30680991  0.51073069  0.49030113    -0.30400
H295        H  0.37669190  0.49199973  0.49406577     0.10600
C296        C  0.44691050  0.47325643  0.46406811     0.03800
C297        C  0.47850388  0.46957072  0.47924627    -0.12700
C298        C  0.48596742  0.44262837  0.50144091    -0.08300
C299        C  0.46082409  0.41618230  0.50437292     0.07300
C300        C  0.42918716  0.42044753  0.48896553    -0.13400
S301        S  0.43822334  0.50964717  0.43818180    -0.30300
H302        H  0.49725264  0.48912320  0.47502152     0.11500
S303        S  0.46677408  0.37541400  0.52473172    -0.27400
H304        H  0.40937265  0.40170704  0.49242712     0.08700
H305        H  0.28449508  0.51907789  0.46468199     0.27200
H306        H  0.46883518  0.52696966  0.44417688     0.22000
H307        H  0.44100648  0.35727437  0.50862830     0.27300
H308        H  0.42985447  0.42109944  0.41274413     0.16100
C309        C  0.08654864  0.86554757  0.59910030    -0.11200
C310        C  0.05381774  0.86341012  0.61207823     0.15400
C311        C  0.02935571  0.88842059  0.60411192     0.02300
C312        C  0.03745195  0.91351162  0.58150654    -0.15500
C313        C  0.06957235  0.91475876  0.56545091    -0.10300
C314        C  0.09542992  0.89100988  0.57681688     0.09000
C315        C  0.04559769  0.83319157  0.63187660     0.10000
S316        S  0.98663048  0.88865256  0.62039645    -0.24700
H317        H  0.01727217  0.93130998  0.57483664     0.20300
S318        S  0.14023910  0.88895418  0.56618787    -0.30400
H319        H  0.10549954  0.84655842  0.60628707     0.10600
C320        C  0.02834814  0.80527776  0.61827279     0.03800
C321        C  0.02404974  0.77557840  0.63674607    -0.12700
C322        C  0.03675887  0.77310106  0.66861031    -0.08300
C323        C  0.05215921  0.80214486  0.68274092     0.07300
C324        C  0.05698953  0.83155062  0.66402024    -0.13400
S325        S  0.01363474  0.80677155  0.57672028    -0.30300
H326        H  0.01209680  0.75363363  0.62570436     0.11500
S327        S  0.06579094  0.80370931  0.72442674    -0.27400
H328        H  0.06976296  0.85335816  0.67453693     0.08700
H329        H  0.14744122  0.92378489  0.56681095     0.27200
H330        H  0.99861172  0.77426864  0.57625543     0.22000
H331        H  0.03729092  0.78605342  0.73622803     0.27300
H332        H  0.99439379  0.87128277  0.64934880     0.16100
C333        C  0.16229150  0.53143602  0.56740890    -0.11200
C334        C  0.12658503  0.53359901  0.56757527     0.15400
C335        C  0.10779135  0.51628549  0.54358637     0.02300
C336        C  0.12510095  0.49865303  0.51904217    -0.15500
C337        C  0.16087518  0.49760145  0.51805148    -0.10300
C338        C  0.17961820  0.51319290  0.54324585     0.09000
C339        C  0.10979093  0.55612460  0.59156670     0.10000
S340        S  0.06178860  0.51659544  0.54243996    -0.24700
H341        H  0.11047298  0.48659754  0.49997336     0.20300
S342        S  0.22545593  0.51040194  0.54625732    -0.30400
H343        H  0.17674577  0.54439477  0.58605910     0.10600
C344        C  0.10907422  0.54774626  0.62474656     0.03800
C345        C  0.09314697  0.57028172  0.64655463    -0.12700
C346        C  0.07812673  0.60109592  0.63582789    -0.08300
C347        C  0.07815354  0.60889323  0.60237491     0.07300
C348        C  0.09435943  0.58657115  0.58072441    -0.13400
S349        S  0.12805430  0.50823943  0.63921147    -0.30300
H350        H  0.09303267  0.56425236  0.67217749     0.11500
S351        S  0.05686932  0.64602213  0.58559419    -0.27400
H352        H  0.09463767  0.59274987  0.55510476     0.08700
H353        H  0.22800443  0.47695181  0.53378138     0.27200
H354        H  0.12050040  0.51313923  0.67223019     0.22000
H355        H  0.02892807  0.64491767  0.60693683     0.27300
H356        H  0.05700551  0.51961791  0.57609952     0.16100
C357        C  0.01780941  0.94885402  0.45780751    -0.11200
C358        C  0.99517581  0.92187998  0.46152605     0.15400
C359        C  0.99948846  0.89908932  0.48752611     0.02300
C360        C  0.02553976  0.90447033  0.50992298    -0.15500
C361        C  0.04642339  0.93396658  0.50907080    -0.10300
C362        C  0.04297823  0.95559124  0.48104231     0.09000
C363        C  0.96543485  0.92015922  0.43966392     0.10000
S364        S  0.97183940  0.86317101  0.49424774    -0.24700
H365        H  0.02879330  0.88494403  0.52814956     0.20300
S366        S  0.06784685  0.99387652  0.47521332    -0.30400
H367        H  0.01429001  0.96585328  0.43731886     0.10600
C368        C  0.93839628  0.94390147  0.44285438     0.03800
C369        C  0.90923638  0.94028450  0.42374432    -0.12700
C370        C  0.90619571  0.91321929  0.40149656    -0.08300
C371        C  0.93441497  0.89065266  0.39697308     0.07300
C372        C  0.96349168  0.89411247  0.41642702    -0.13400
S373        S  0.93997090  0.97749585  0.47293386    -0.30300
H374        H  0.88803752  0.95785350  0.42733899     0.11500
S375        S  0.93527408  0.85717588  0.36695747    -0.27400
H376        H  0.98466602  0.87627327  0.41363513     0.08700
H377        H  0.05370917  0.00452067  0.44548601     0.27200
H378        H  0.90842224  0.99305371  0.46538985     0.22000
H379        H  0.92055117  0.87774612  0.34254079     0.27300
H380        H  0.94164859  0.87953812  0.48381916     0.16100
C381        C  0.56106646  0.52129763  0.56602068    -0.11200
C382        C  0.53366766  0.54437936  0.56784612     0.15400
C383        C  0.50154075  0.53444311  0.55643555     0.02300
C384        C  0.49788205  0.50226301  0.54204883    -0.15500
C385        C  0.52570869  0.47897461  0.53818673    -0.10300
C386        C  0.55741637  0.48852235  0.55279827     0.09000
C387        C  0.53950638  0.57896177  0.58145494     0.10000
S388        S  0.46465583  0.56224626  0.56114362    -0.24700
H389        H  0.47250393  0.49522490  0.53485767     0.20300
S390        S  0.59477799  0.46083795  0.55311287    -0.30400
H391        H  0.58571217  0.52934611  0.57485605     0.10600
C392        C  0.55217469  0.58348269  0.61315433     0.03800
C393        C  0.55886113  0.61654558  0.62435650    -0.12700
C394        C  0.55262545  0.64540636  0.60485757    -0.08300
C395        C  0.53955366  0.64089617  0.57314450     0.07300
C396        C  0.53360228  0.60769372  0.56174326    -0.13400
S397        S  0.55873341  0.54737104  0.63993696    -0.30300
H398        H  0.56850947  0.61998653  0.64872843     0.11500
S399        S  0.53204816  0.67670384  0.54616482    -0.27400
H400        H  0.52470813  0.60391914  0.53714780     0.08700
H401        H  0.61601676  0.48141562  0.57224313     0.27200
H402        H  0.57524882  0.56529068  0.66489260     0.22000
H403        H  0.51485527  0.65848636  0.52182005     0.27300
H404        H  0.44164636  0.54248583  0.54310088     0.16100
C405        C  0.67898266  0.86446597  0.46743252    -0.11200
C406        C  0.69169514  0.84077790  0.49003880     0.15400
C407        C  0.72659650  0.83158931  0.48953943     0.02300
C408        C  0.74781187  0.84556658  0.46594622    -0.15500
C409        C  0.73511587  0.86887593  0.44287772    -0.10300
C410        C  0.70033597  0.87895875  0.44416626     0.09000
C411        C  0.66790071  0.82537718  0.51338427     0.10000
S412        S  0.74546813  0.80169960  0.51789426    -0.24700
H413        H  0.77436159  0.83755147  0.46519796     0.20300
S414        S  0.68176660  0.91069467  0.41754119    -0.30400
H415        H  0.65223308  0.87178668  0.46803728     0.10600
C416        C  0.65486199  0.84429384  0.53976268     0.03800
C417        C  0.63403972  0.82803276  0.56246595    -0.12700
C418        C  0.62682137  0.79309814  0.55964720    -0.08300
C419        C  0.63912370  0.77439468  0.53277127     0.07300
C420        C  0.65938470  0.79084832  0.50972662    -0.13400
S421        S  0.66667639  0.88840368  0.54570155    -0.30300
H422        H  0.62477391  0.84207019  0.58338017     0.11500
S423        S  0.62862604  0.72981687  0.52749730    -0.27400
H424        H  0.66930633  0.77673275  0.48913258     0.08700
H425        H  0.71059668  0.93180354  0.41737567     0.27200
H426        H  0.64781709  0.89390915  0.57425912     0.22000
H427        H  0.64684583  0.72464783  0.49851499     0.27300
H428        H  0.72394024  0.80985730  0.54407560     0.16100
C429        C  0.63996550  0.43627547  0.39661631    -0.11200
C430        C  0.63648765  0.43640435  0.43040045     0.15400
C431        C  0.66556875  0.43274959  0.45027234     0.02300
C432        C  0.69767321  0.43087335  0.43604640    -0.15500
C433        C  0.70158043  0.43153593  0.40225313    -0.10300
C434        C  0.67233237  0.43381708  0.38220471     0.09000
C435        C  0.60264710  0.44191373  0.44488226     0.10000
S436        S  0.66349580  0.43102752  0.49397943    -0.24700
H437        H  0.71988554  0.42865750  0.45161550     0.20300
S438        S  0.67588749  0.43607916  0.33859269    -0.30400
H439        H  0.61736258  0.43911630  0.38170583     0.10600
C440        C  0.59431734  0.47282652  0.46021783     0.03800
C441        C  0.56619610  0.47418425  0.48088267    -0.12700
C442        C  0.54748531  0.44442024  0.48882151    -0.08300
C443        C  0.55191975  0.41588761  0.46731154     0.07300
C444        C  0.58018927  0.41463607  0.44656790    -0.13400
S445        S  0.62043758  0.51014327  0.45451680    -0.30300
H446        H  0.55983275  0.49867557  0.49139820     0.11500
S447        S  0.52443327  0.37924486  0.46724922    -0.27400
H448        H  0.58612266  0.39148635  0.43316468     0.08700
H449        H  0.64071590  0.43642923  0.33180446     0.27200
H450        H  0.60407156  0.53108861  0.47762998     0.22000
H451        H  0.53590240  0.36480036  0.43791979     0.27300
H452        H  0.63192797  0.41451045  0.49573580     0.16100
C453        C  0.03633966  0.10325327  0.57116997    -0.11200
C454        C  0.03376599  0.07627240  0.59338447     0.15400
C455        C  0.02562791  0.08338456  0.62601433     0.02300
C456        C  0.02082588  0.11731896  0.63576671    -0.15500
C457        C  0.02327153  0.14443201  0.61354368    -0.10300
C458        C  0.03050997  0.13709014  0.58066480     0.09000
C459        C  0.04090586  0.04123017  0.58173522     0.10000
S460        S  0.02087042  0.05045138  0.65627955    -0.24700
H461        H  0.01521339  0.12256086  0.66101964     0.20300
S462        S  0.03129198  0.16923899  0.54934323    -0.30400
H463        H  0.04250051  0.09778762  0.54606381     0.10600
C464        C  0.02014084  0.02573731  0.55850005     0.03800
C465        C  0.02973411  0.99390994  0.54576703    -0.12700
C466        C  0.06068630  0.97694524  0.55469349    -0.08300
C467        C  0.07853910  0.99119561  0.58181625     0.07300
C468        C  0.06928602  0.02356227  0.59372452    -0.13400
S469        S  0.98065256  0.04609497  0.54582470    -0.30300
H470        H  0.01201115  0.98237524  0.52925113     0.11500
S471        S  0.11367493  0.96967012  0.60180834    -0.27400
H472        H  0.08439162  0.03551192  0.61247220     0.08700
H473        H  0.00210738  0.18678232  0.56070278     0.27200
H474        H  0.97202253  0.02228665  0.52178211     0.22000
H475        H  0.11741381  0.99228153  0.62806739     0.27300
H476        H  0.00880130  0.02521573  0.63500075     0.16100
C477        C  0.95424989  0.34482436  0.52863981    -0.11200
C478        C  0.91903086  0.33991361  0.52615138     0.15400
C479        C  0.90289739  0.31692840  0.54732816     0.02300
C480        C  0.92239220  0.29901016  0.57022181    -0.15500
C481        C  0.95786316  0.30358495  0.57280754    -0.10300
C482        C  0.97388294  0.32674818  0.55138067     0.09000
C483        C  0.90043943  0.35652362  0.49920533     0.10000
S484        S  0.85761223  0.30920650  0.54622351    -0.24700
H485        H  0.90950934  0.28158964  0.58642526     0.20300
S486        S  0.01925607  0.33325617  0.55035823    -0.30400
H487        H  0.96671391  0.36201623  0.51190471     0.10600
C488        C  0.89220234  0.39168768  0.49959971     0.03800
C489        C  0.87425854  0.40605832  0.47337889    -0.12700
C490        C  0.86481599  0.38594171  0.44665645    -0.08300
C491        C  0.87471198  0.35099376  0.44581558     0.07300
C492        C  0.89172098  0.33659191  0.47233218    -0.13400
S493        S  0.90360922  0.41788639  0.53391649    -0.30300
H494        H  0.86696045  0.43286035  0.47397712     0.11500
S495        S  0.86826097  0.32380856  0.41104928    -0.27400
H496        H  0.89896413  0.30973642  0.47174866     0.08700
H497        H  0.02719364  0.29802848  0.55028020     0.27200
H498        H  0.89157078  0.44915633  0.52114972     0.22000
H499        H  0.87621182  0.34920197  0.38814724     0.27300
H500        H  0.84793703  0.34178338  0.53476161     0.16100
C501        C  0.15574200  0.30689189  0.70396115    -0.11200
C502        C  0.15475610  0.30081516  0.73744119     0.15400
C503        C  0.13099659  0.27747936  0.75006393     0.02300
C504        C  0.10754959  0.26233465  0.72924007    -0.15500
C505        C  0.10641286  0.27066692  0.69611998    -0.10300
C506        C  0.13216363  0.29164527  0.68308324     0.09000
C507        C  0.17500104  0.32252708  0.75919513     0.10000
S508        S  0.12757864  0.26743879  0.79270729    -0.24700
H509        H  0.08830727  0.24595107  0.73961881     0.20300
S510        S  0.13621412  0.30007264  0.64032825    -0.30400
H511        H  0.17432905  0.32441853  0.69420685     0.10600
C512        C  0.20396045  0.31001828  0.77576042     0.03800
C513        C  0.21752791  0.32926163  0.80136157    -0.12700
C514        C  0.20232069  0.36051661  0.81062596    -0.08300
C515        C  0.17519907  0.37428665  0.79198320     0.07300
C516        C  0.16183380  0.35506907  0.76647348    -0.13400
S517        S  0.22234573  0.26892258  0.76531535    -0.30300
H518        H  0.23871195  0.31905846  0.81534091     0.11500
S519        S  0.15734094  0.41623842  0.80046821    -0.27400
H520        H  0.13984371  0.36454788  0.75316693     0.08700
H521        H  0.12470017  0.26767595  0.63058874     0.27200
H522        H  0.25059473  0.27082159  0.78627113     0.22000
H523        H  0.13388139  0.41720214  0.77464778     0.27300
H524        H  0.13755858  0.29931795  0.80492548     0.16100
C525        C  0.11651339  0.58886566  0.82389087    -0.11200
C526        C  0.15049351  0.59861694  0.82821071     0.15400
C527        C  0.16214750  0.62865110  0.81288683     0.02300
C528        C  0.13998245  0.64721955  0.79246749    -0.15500
C529        C  0.10607387  0.63700004  0.78785387    -0.10300
C530        C  0.09423720  0.60774867  0.80431599     0.09000
C531        C  0.17344887  0.57393669  0.84508609     0.10000
S532        S  0.20498010  0.64407676  0.81792543    -0.24700
H533        H  0.14936155  0.66947008  0.77975095     0.20300
S534        S  0.05233498  0.59055082  0.79789293    -0.30400
H535        H  0.10761154  0.56537957  0.83482765     0.10600
C536        C  0.16704514  0.56364728  0.87720015     0.03800
C537        C  0.18278368  0.53384625  0.88928925    -0.12700
C538        C  0.20537636  0.51426943  0.87012546    -0.08300
C539        C  0.21433710  0.52667838  0.83896356     0.07300
C540        C  0.19800068  0.55617254  0.82679931    -0.13400
S541        S  0.13782547  0.58788910  0.90236213    -0.30300
H542        H  0.17645594  0.52508085  0.91341479     0.11500
S543        S  0.24398137  0.50396902  0.81292673    -0.27400
H544        H  0.20263531  0.56416901  0.80207274     0.08700
H545        H  0.03571734  0.61947802  0.81103029     0.27200
H546        H  0.14378971  0.56944935  0.93114351     0.22000
H547        H  0.24707722  0.52969642  0.78928446     0.27300
H548        H  0.21071357  0.62897936  0.84842294     0.16100
C549        C  0.45110333  0.42662749  0.99104201    -0.11200
C550        C  0.43121280  0.39733548  0.98970074     0.15400
C551        C  0.44271770  0.36732405  0.00506037     0.02300
C552        C  0.47305120  0.36770068  0.02279275    -0.15500
C553        C  0.49261274  0.39779611  0.02689605    -0.10300
C554        C  0.48152532  0.42741899  0.00895719     0.09000
C555        C  0.39765781  0.39965042  0.97356967     0.10000
S556        S  0.41945082  0.32773984  0.00376751    -0.24700
H557        H  0.48132802  0.34341808  0.03249877     0.20300
S558        S  0.50331729  0.46792552  0.01030692    -0.30400
H559        H  0.44184522  0.44953118  0.97895656     0.10600
C560        C  0.36774008  0.40565870  0.99156442     0.03800
C561        C  0.33649603  0.40876842  0.97536402    -0.12700
C562        C  0.33436747  0.40550875  0.94149112    -0.08300
C563        C  0.36453262  0.39930531  0.92345217     0.07300
C564        C  0.39590755  0.39678755  0.93976482    -0.13400
S565        S  0.36937616  0.40954895  0.03517956    -0.30300
H566        H  0.31346489  0.41324921  0.98926195     0.11500
S567        S  0.36385179  0.39594117  0.87974794    -0.27400
H568        H  0.41925782  0.39253521  0.92628349     0.08700
H569        H  0.48723211  0.48311450  0.98331849     0.27200
H570        H  0.33416139  0.41440247  0.04013891     0.22000
H571        H  0.39854665  0.38744678  0.87563839     0.27300
H572        H  0.40289878  0.33360194  0.97403702     0.16100
C573        C  0.16009119  0.28570864  0.31243868    -0.11200
C574        C  0.14673658  0.27598792  0.34253163     0.15400
C575        C  0.12334096  0.24886923  0.34399588     0.02300
C576        C  0.11269548  0.23319473  0.31516735    -0.15500
C577        C  0.12502669  0.24401852  0.28488374    -0.10300
C578        C  0.14998288  0.26978779  0.28381223     0.09000
C579        C  0.15507588  0.29772593  0.37073864     0.10000
S580        S  0.10547860  0.23395716  0.38163186    -0.24700
H581        H  0.09360508  0.21340427  0.31631217     0.20300
S582        S  0.16991077  0.28374294  0.24678598    -0.30400
H583        H  0.17805628  0.30654793  0.31116535     0.10600
C584        C  0.18909283  0.30182301  0.38087400     0.03800
C585        C  0.19756953  0.33013074  0.39995867    -0.12700
C586        C  0.17254300  0.35425611  0.40912574    -0.08300
C587        C  0.13784218  0.34724450  0.40296017     0.07300
C588        C  0.12951189  0.31925231  0.38337051    -0.13400
S589        S  0.22194573  0.27218245  0.36769176    -0.30300
H590        H  0.22409954  0.33488017  0.40546435     0.11500
S591        S  0.10411154  0.37424532  0.41902400    -0.27400
H592        H  0.10330278  0.31546821  0.37602636     0.08700
H593        H  0.17016363  0.25122392  0.23212413     0.27200
H594        H  0.24869268  0.28638527  0.38581789     0.22000
H595        H  0.07670959  0.35418021  0.40843434     0.27300
H596        H  0.13274669  0.24412673  0.40144521     0.16100
C597        C  0.90197456  0.35019033  0.26175603    -0.11200
C598        C  0.89411163  0.31534096  0.26356116     0.15400
C599        C  0.86438060  0.30516954  0.27999388     0.02300
C600        C  0.84442057  0.32976926  0.29604075    -0.15500
C601        C  0.85337703  0.36446889  0.29585811    -0.10300
C602        C  0.88169025  0.37487253  0.27720231     0.09000
C603        C  0.91941470  0.29031127  0.25105355     0.10000
S604        S  0.85144137  0.26112335  0.28247112    -0.24700
H605        H  0.82266769  0.32146486  0.31005557     0.20300
S606        S  0.89350592  0.41905263  0.27228442    -0.30400
H607        H  0.92461489  0.35812916  0.24884308     0.10600
C608        C  0.92651532  0.28755144  0.21775406     0.03800
C609        C  0.95390047  0.26692964  0.20747931    -0.12700
C610        C  0.97453646  0.24901326  0.22984051    -0.08300
C611        C  0.96619045  0.25053402  0.26327453     0.07300
C612        C  0.93866402  0.27115363  0.27336711    -0.13400
S613        S  0.90104718  0.31079704  0.18841542    -0.30300
H614        H  0.95995514  0.26566602  0.18190528     0.11500
S615        S  0.99145871  0.22859967  0.29376879    -0.27400
H616        H  0.93280815  0.27353828  0.29892442     0.08700
H617        H  0.85981054  0.43188541  0.27263229     0.27200
H618        H  0.91633881  0.29658550  0.16058952     0.22000
H619        H  0.97516306  0.24266938  0.32114503     0.27300
H620        H  0.86647740  0.25062581  0.25312260     0.16100
C621        C  0.07134276  0.01968071  0.07318425    -0.11200
C622        C  0.09332291  0.01683483  0.09963799     0.15400
C623        C  0.11490328  0.98807298  0.10225775     0.02300
C624        C  0.11374272  0.96269699  0.07841091    -0.15500
C625        C  0.09012030  0.96369518  0.05217844    -0.10300
C626        C  0.06939026  0.99432931  0.04919394     0.09000
C627        C  0.09355945  0.04552358  0.12301967     0.10000
S628        S  0.14372644  0.98156448  0.13589277    -0.24700
H629        H  0.13025567  0.94054403  0.08156592     0.20300
S630        S  0.04245141  0.00572058  0.01497553    -0.30400
H631        H  0.05610517  0.04287368  0.07101490     0.10600
C632        C  0.11944963  0.07016842  0.12259855     0.04200
C633        C  0.11596678  0.09963295  0.14179981    -0.12700
C634        C  0.08675059  0.10533992  0.16092719    -0.08300
C635        C  0.06169549  0.07962201  0.16246003     0.07300
C636        C  0.06521490  0.05027523  0.14326960    -0.13400
S637        S  0.15557210  0.06538015  0.09573692    -0.30300
H638        H  0.13520464  0.11922111  0.14045746     0.11500
S639        S  0.02472299  0.08255698  0.18827041    -0.27400
H640        H  0.04535903  0.03120977  0.14361781     0.08700
H641        H  0.02236977  0.03115334  0.03008340     0.27200
H642        H  0.17122049  0.09653104  0.10350870     0.22000
H643        H  0.04193223  0.09866095  0.21393431     0.27300
H644        H  0.12505649  0.00084902  0.15866927     0.16100
C645        C  0.16698844  0.30114547  0.00816723    -0.11200
C646        C  0.14468091  0.31958428  0.02829079     0.15400
C647        C  0.13818015  0.35446176  0.02184287     0.02300
C648        C  0.15486532  0.37036461  0.99603260    -0.15500
C649        C  0.17791183  0.35230026  0.97599430    -0.10300
C650        C  0.18367786  0.31688584  0.98209406     0.09000
C651        C  0.13128112  0.30236922  0.05751026     0.10000
S652        S  0.10991493  0.38045795  0.04632583    -0.24700
H653        H  0.14989540  0.39732951  0.99180531     0.20300
S654        S  0.21278314  0.29123697  0.95793883    -0.30400
H655        H  0.17184953  0.27439843  0.01351590     0.10600
C656        C  0.10091382  0.28359832  0.05678256     0.03800
C657        C  0.09007641  0.26669198  0.08491261    -0.12700
C658        C  0.10930965  0.26764154  0.11376998    -0.08300
C659        C  0.13982993  0.28682446  0.11431740     0.07300
C660        C  0.15029617  0.30392738  0.08618289    -0.13400
S661        S  0.07598963  0.28138142  0.02001365    -0.30300
H662        H  0.06674239  0.25218615  0.08422101     0.11500
S663        S  0.16545643  0.29086450  0.15058807    -0.27400
H664        H  0.17354786  0.31860474  0.08633047     0.08700
H665        H  0.20974706  0.26047762  0.97535375     0.27200
H666        H  0.05041149  0.25998245  0.03219596     0.22000
H667        H  0.19303259  0.30800467  0.13640694     0.27300
H668        H  0.08835840  0.35400112  0.05620214     0.16100
C669        C  0.71384724  0.08317033  0.71158535    -0.11200
C670        C  0.73019534  0.10336632  0.73483133     0.15400
C671        C  0.72135915  0.13841293  0.73734762     0.02300
C672        C  0.69307645  0.15108587  0.72013559    -0.15500
C673        C  0.67417033  0.12967840  0.69964905    -0.10300
C674        C  0.68635044  0.09608986  0.69351370     0.09000
C675        C  0.75280409  0.08560593  0.75841252     0.10000
S676        S  0.74405629  0.16762830  0.76320911    -0.24700
H677        H  0.68475116  0.17728298  0.72415815     0.20300
S678        S  0.66686100  0.06915284  0.66319652    -0.30400
H679        H  0.72145083  0.05658098  0.70893082     0.10600
C680        C  0.74284606  0.08156037  0.79106610     0.03800
C681        C  0.76143131  0.05924519  0.81113805    -0.12700
C682        C  0.78904193  0.03984497  0.79912001    -0.08300
C683        C  0.80017015  0.04548045  0.76698915     0.07300
C684        C  0.78183771  0.06808451  0.74698433    -0.13400
S685        S  0.70415762  0.10137967  0.80638072    -0.30300
H686        H  0.75262463  0.05481267  0.83563146     0.11500
S687        S  0.83705881  0.02430795  0.74991340    -0.27400
H688        H  0.78954220  0.07117137  0.72193964     0.08700
H689        H  0.69107178  0.04232471  0.66453491     0.27200
H690        H  0.70775145  0.09068208  0.83878074     0.22000
H691        H  0.85554380  0.02334513  0.77916817     0.27300
H692        H  0.77454083  0.14836791  0.76464181     0.16100
C693        C  0.73826603  0.81487226  0.80213129    -0.11200
C694        C  0.73384562  0.82068487  0.76889349     0.15400
C695        C  0.75205170  0.84710757  0.75359162     0.02300
C696        C  0.77298124  0.86809748  0.77221214    -0.15500
C697        C  0.77573976  0.86394647  0.80595072    -0.10300
C698        C  0.75905014  0.83611703  0.82091824     0.09000
C699        C  0.70661068  0.80213111  0.75194945     0.10000
S700        S  0.74769361  0.85769165  0.71109880    -0.24700
H701        H  0.78553051  0.88927070  0.76039503     0.20300
S702        S  0.76336328  0.82749223  0.86382225    -0.30400
H703        H  0.72418016  0.79446505  0.81351930     0.10600
C704        C  0.71312032  0.77195916  0.73422357     0.03800
C705        C  0.68684314  0.75775375  0.71556132    -0.12700
C706        C  0.65430263  0.77316680  0.71475181    -0.08300
C707        C  0.64726791  0.80160233  0.73499502     0.07300
C708        C  0.67359635  0.81605411  0.75291853    -0.13400
S709        S  0.75534112  0.75306162  0.73381241    -0.30300
H710        H  0.69212004  0.73581492  0.70025580     0.11500
S711        S  0.60527234  0.82060104  0.73909553    -0.27400
H712        H  0.66845894  0.83867608  0.76741750     0.08700
H713        H  0.74250314  0.79847679  0.86486937     0.27200
H714        H  0.74709770  0.72439097  0.71485851     0.22000
H715        H  0.58748129  0.78988487  0.73461734     0.27300
H716        H  0.73215577  0.82763615  0.70037611     0.16100
C717        C  0.96046347  0.90418743  0.92691481    -0.11200
C718        C  0.97638016  0.93409851  0.93744858     0.15400
C719        C  0.96295543  0.96626797  0.92813177     0.02300
C720        C  0.93296178  0.96786523  0.90980761    -0.15500
C721        C  0.91602276  0.93798235  0.90038039    -0.10300
C722        C  0.93066858  0.90574660  0.90824169     0.09000
C723        C  0.00520658  0.93107358  0.96030745     0.10000
S724        S  0.98178688  0.00613194  0.94044031    -0.24700
H725        H  0.92208550  0.99272921  0.90392614     0.20300
S726        S  0.91290010  0.86576091  0.89504371    -0.30400
H727        H  0.97101773  0.87946932  0.93379955     0.10600
C728        C  0.99991995  0.93341703  0.99376902     0.03800
C729        C  0.02797471  0.93210179  0.01461035    -0.12700
C730        C  0.06204118  0.93025200  0.00317423    -0.08300
C731        C  0.06634009  0.92267583  0.96926869     0.07300
C732        C  0.03796539  0.92464374  0.94845596    -0.13400
S733        S  0.95741276  0.93906915  0.00997590    -0.30300
H734        H  0.02336278  0.93492565  0.04022813     0.11500
S735        S  0.10492687  0.90491051  0.95151238    -0.27400
H736        H  0.04097377  0.92013135  0.92270136     0.08700
H737        H  0.90204800  0.87820088  0.86467737     0.27200
H738        H  0.96659668  0.93915152  0.04295300     0.22000
H739        H  0.09705912  0.91192232  0.91888525     0.27300
H740        H  0.01560926  0.99393136  0.94186653     0.16100
C741        C  0.71222669  0.02501192  0.30748445    -0.11200
C742        C  0.71735796  0.02445795  0.27390970     0.15400
C743        C  0.74567175  0.00662461  0.26101078     0.02300
C744        C  0.76645879  0.98721308  0.28164083    -0.15500
C745        C  0.75958603  0.98491552  0.31502649    -0.10300
C746        C  0.73313467  0.00563141  0.32834303     0.09000
C747        C  0.68979461  0.03752477  0.25280012     0.10000
S748        S  0.75462331  0.00470843  0.21813458    -0.24700
H749        H  0.78687142  0.97202498  0.27102029     0.20300
S750        S  0.72470260  0.00697421  0.37143894    -0.30400
H751        H  0.69053479  0.03912100  0.31705834     0.10600
C752        C  0.66354220  0.01566178  0.24273475     0.03800
C753        C  0.63826389  0.02813987  0.22177985    -0.12700
C754        C  0.63898130  0.06190308  0.21018902    -0.08300
C755        C  0.66474180  0.08411803  0.22123978     0.07300
C756        C  0.68986775  0.07168225  0.24249610    -0.13400
S757        S  0.66274008  0.97155692  0.25597320    -0.30300
H758        H  0.61856946  0.01108586  0.21335908     0.11500
S759        S  0.66662445  0.12851781  0.20965987    -0.27400
H760        H  0.70984956  0.08853340  0.25072482     0.08700
H761        H  0.69778790  0.03108110  0.37045539     0.27200
H762        H  0.63457591  0.96158403  0.23720715     0.22000
H763        H  0.63104884  0.13352720  0.20842455     0.27300
H764        H  0.73962991  0.03636282  0.21000588     0.16100
C765        C  0.45024303  0.99596242  0.20438935    -0.11200
C766        C  0.42607028  0.02046671  0.21446769     0.15400
C767        C  0.42366084  0.05194447  0.19785727     0.02300
C768        C  0.44808849  0.05989029  0.17446444    -0.15500
C769        C  0.47474665  0.03682912  0.16699944    -0.10300
C770        C  0.47398430  0.00344387  0.18026829     0.09000
C771        C  0.40845091  0.01470212  0.24565448     0.10000
S772        S  0.39146938  0.08382259  0.20703642    -0.24700
H773        H  0.44759798  0.08525150  0.16384468     0.20300
S774        S  0.50326670  0.96971572  0.16858892    -0.30400
H775        H  0.45179941  0.97142531  0.21659103     0.10600
C776        C  0.38716733  0.98648722  0.25056565     0.03800
C777        C  0.37671426  0.97838441  0.28209380    -0.12700
C778        C  0.38702933  0.99801779  0.30894515    -0.08300
C779        C  0.40594799  0.02817970  0.30343699     0.07300
C780        C  0.41671157  0.03582643  0.27190745    -0.13400
S781        S  0.37393049  0.96043157  0.21674577    -0.30300
H782        H  0.36164287  0.95572338  0.28590322     0.11500
S783        S  0.41735038  0.05700248  0.33593861    -0.27400
H784        H  0.43293641  0.05761735  0.26775387     0.08700
H785        H  0.50573210  0.98048596  0.13611683     0.27200
H786        H  0.35212428  0.93897908  0.23433229     0.22000
H787        H  0.43361898  0.08175282  0.31683999     0.27300
H788        H  0.36748281  0.06079504  0.21946211     0.16100
C789        C  0.53690364  0.24966500  0.13527490    -0.11200
C790        C  0.53436928  0.26042662  0.10295906     0.15400
C791        C  0.53484639  0.23591203  0.07789080     0.02300
C792        C  0.53918566  0.20135683  0.08551516    -0.15500
C793        C  0.54261866  0.19029760  0.11779248    -0.10300
C794        C  0.54041789  0.21489037  0.14302450     0.09000
C795        C  0.53393427  0.29734482  0.09548562     0.10000
S796        S  0.53118487  0.24721746  0.03557084    -0.24700
H797        H  0.54060462  0.18302871  0.06583360     0.20300
S798        S  0.54130277  0.20384902  0.18542160    -0.30400
H799        H  0.53630233  0.26852207  0.15454377     0.10600
C800        C  0.50459797  0.31776193  0.09935272     0.03800
C801        C  0.50434907  0.35123423  0.08714962    -0.12700
C802        C  0.53164006  0.36391831  0.06831399    -0.08300
C803        C  0.56328825  0.34512157  0.07044604     0.07300
C804        C  0.56332813  0.31167537  0.08261234    -0.13400
S805        S  0.46659691  0.30028666  0.11727290    -0.30300
H806        H  0.48133546  0.36638605  0.08953694     0.11500
S807        S  0.60476950  0.36269433  0.06161443    -0.27400
H808        H  0.58640684  0.29618140  0.08177411     0.08700
H809        H  0.51951569  0.17573039  0.18182845     0.27200
H810        H  0.44497828  0.32846515  0.11081252     0.22000
H811        H  0.62488952  0.33727305  0.07674499     0.27300
H812        H  0.51025157  0.27628156  0.04010723     0.16100
C813        C  0.67707089  0.98601660  0.94629867    -0.11200
C814        C  0.68736182  0.99140304  0.97836217     0.15400
C815        C  0.72166368  0.98533505  0.98722327     0.02300
C816        C  0.74536494  0.97616670  0.96345562    -0.15500
C817        C  0.73560595  0.97221942  0.93092062    -0.10300
C818        C  0.70077057  0.97685610  0.92240825     0.09000
C819        C  0.66299913  0.00737526  0.00114016     0.10000
S820        S  0.73700707  0.99012420  0.02822666    -0.24700
H821        H  0.77176160  0.97224933  0.97049732     0.20300
S822        S  0.68511746  0.97428055  0.88139459    -0.30400
H823        H  0.65074222  0.99090244  0.93950233     0.10600
C824        C  0.66629606  0.04193166  0.01002200     0.03800
C825        C  0.64494663  0.05562872  0.03393265    -0.12700
C826        C  0.62023757  0.03555948  0.04933694    -0.08300
C827        C  0.61625536  0.00107911  0.03943279     0.07300
C828        C  0.63738125  0.98756237  0.01512199    -0.13400
S829        S  0.69773519  0.06866564  0.99083184    -0.30300
H830        H  0.64777518  0.08216510  0.04085751     0.11500
S831        S  0.58649987  0.97232869  0.05800429    -0.27400
H832        H  0.63491273  0.96097573  0.00810198     0.08700
H833        H  0.71060931  0.99550627  0.86869824     0.27200
H834        H  0.69291817  0.09751248  0.01077884     0.22000
H835        H  0.59710774  0.97992657  0.08978278     0.27300
H836        H  0.70601491  0.98256443  0.04358463     0.16100
C837        C  0.41903263  0.85253201  0.78303402    -0.11200
C838        C  0.45341414  0.84291406  0.78027749     0.15400
C839        C  0.47687649  0.85326202  0.80417539     0.02300
C840        C  0.46533223  0.87229452  0.83067525    -0.15500
C841        C  0.43087797  0.88213628  0.83372326    -0.10300
C842        C  0.40755270  0.87235504  0.80921554     0.09000
C843        C  0.46465125  0.82291595  0.75187069     0.10000
S844        S  0.52180077  0.84261808  0.80256736    -0.24700
H845        H  0.48359708  0.87941658  0.84915269     0.20300
S846        S  0.36331059  0.88528354  0.80900977    -0.30400
H847        H  0.40115542  0.84500216  0.76435894     0.10600
C848        C  0.47141898  0.78761492  0.75414303     0.03800
C849        C  0.48787805  0.77088258  0.72842470    -0.12700
C850        C  0.49831155  0.78891134  0.70065962    -0.08300
C851        C  0.48948143  0.82412121  0.69776780     0.07300
C852        C  0.47229091  0.84048265  0.72330548    -0.13400
S853        S  0.46068105  0.76437202  0.79051459    -0.30300
H854        H  0.49424998  0.74396373  0.73073922     0.11500
S855        S  0.50206690  0.84960418  0.66327932    -0.27400
H856        H  0.46657056  0.86762631  0.72195392     0.08700
H857        H  0.37006483  0.91951064  0.81718525     0.27200
H858        H  0.47209342  0.73201606  0.77986258     0.22000
H859        H  0.49518807  0.88190459  0.67702080     0.27300
H860        H  0.52503606  0.84380734  0.76868148     0.16100
C861        C  0.43475960  0.08394024  0.84917868    -0.11200
C862        C  0.47016982  0.08319513  0.84452684     0.15400
C863        C  0.49070852  0.06195042  0.86432586     0.02300
C864        C  0.47524828  0.03884160  0.88535535    -0.15500
C865        C  0.43956091  0.03656129  0.88729716    -0.10300
C866        C  0.41918626  0.06105605  0.87070232     0.09000
C867        C  0.48425480  0.09915121  0.81502536     0.10000
S868        S  0.53661093  0.06060769  0.86127542    -0.24700
H869        H  0.49132018  0.02080156  0.89844704     0.20300
S870        S  0.37346523  0.06285928  0.87596431    -0.30400
H871        H  0.41920402  0.10080846  0.83429691     0.10600
C872        C  0.49181059  0.07882561  0.78771092     0.03800
C873        C  0.50651730  0.09387794  0.76045455    -0.12700
C874        C  0.51380914  0.12899778  0.75961303    -0.08300
C875        C  0.50485673  0.14960841  0.78661936     0.07300
C876        C  0.49038993  0.13440853  0.81412270    -0.13400
S877        S  0.48272078  0.03353032  0.78754042    -0.30300
H878        H  0.51305101  0.07792570  0.73986984     0.11500
S879        S  0.51013764  0.19531749  0.78717310    -0.27400
H880        H  0.48393903  0.15008326  0.83495240     0.08700
H881        H  0.36785775  0.09342002  0.85861785     0.27200
H882        H  0.49579617  0.02631039  0.75651345     0.22000
H883        H  0.49987714  0.20002440  0.75475782     0.27300
H884        H  0.54021025  0.09428940  0.84993052     0.16100
C885        C  0.17417563  0.95616093  0.98397689    -0.11200
C886        C  0.19654487  0.92976818  0.99271683     0.15400
C887        C  0.18550155  0.90445644  0.01431676     0.02300
C888        C  0.15235596  0.90612836  0.02666789    -0.15500
C889        C  0.12797770  0.93095419  0.01603356    -0.10300
C890        C  0.14040733  0.95721063  0.99502363     0.09000
C891        C  0.23191417  0.93086178  0.98044729     0.10000
S892        S  0.21252222  0.86926412  0.02712898    -0.24700
H893        H  0.14632195  0.88766362  0.04516454     0.20300
S894        S  0.11416971  0.99194028  0.98022927    -0.30400
H895        H  0.18344167  0.97622153  0.96826958     0.10600
C896        C  0.23935855  0.92569352  0.94740217     0.03800
C897        C  0.27315086  0.92826917  0.93668408    -0.12700
C898        C  0.29978872  0.93570269  0.95837018    -0.08300
C899        C  0.29210462  0.94003039  0.99169449     0.07300
C900        C  0.25829881  0.93814920  0.00217086    -0.13400
S901        S  0.20591348  0.91514605  0.91903580    -0.30300
H902        H  0.27880633  0.92461776  0.91122773     0.11500
S903        S  0.32409108  0.94635713  0.02243967    -0.27400
H904        H  0.25250076  0.94191089  0.02762130     0.08700
H905        H  0.13395452  0.00010909  0.95292863     0.27200
H906        H  0.22685567  0.91158193  0.89154727     0.22000
H907        H  0.34565930  0.92002491  0.01086397     0.27300
H908        H  0.23109220  0.86664695  0.99806697     0.16100
C909        C  0.46087903  0.81543436  0.36153967    -0.11200
C910        C  0.43985871  0.79731069  0.34028701     0.15400
C911        C  0.40447454  0.80420251  0.34002205     0.02300
C912        C  0.39155223  0.83186067  0.35787772    -0.15500
C913        C  0.41317253  0.85254227  0.37651249    -0.10300
C914        C  0.44789846  0.84279148  0.37997544     0.09000
C915        C  0.45634675  0.77621483  0.31485156     0.10000
S916        S  0.37509465  0.78036020  0.31533817    -0.24700
H917        H  0.36471532  0.83838792  0.35563601     0.20300
S918        S  0.47621445  0.86525054  0.40705240    -0.30400
H919        H  0.48792291  0.80949140  0.36206698     0.10600
C920        C  0.45892767  0.78877247  0.28297259     0.03800
C921        C  0.47658646  0.76958458  0.25970831    -0.12700
C922        C  0.49223887  0.73807221  0.26744471    -0.08300
C923        C  0.48951129  0.72536785  0.29954691     0.07300
C924        C  0.47160657  0.74472024  0.32289821    -0.13400
S925        S  0.44140856  0.83028786  0.27219970    -0.30300
H926        H  0.47870097  0.77961471  0.23534497     0.11500
S927        S  0.51013419  0.68580251  0.31176892    -0.27400
H928        H  0.46989559  0.73571101  0.34765618     0.08700
H929        H  0.50457265  0.84319070  0.40343752     0.27200
H930        H  0.44711806  0.82782361  0.23861673     0.22000
H931        H  0.49780164  0.68524571  0.34377535     0.27300
H932        H  0.39503851  0.75026566  0.31371304     0.16100
C933        C  0.76166138  0.75426026  0.29101910    -0.11200
C934        C  0.73856060  0.76506944  0.26699433     0.15400
C935        C  0.73703879  0.80003950  0.25833509     0.02300
C936        C  0.75812270  0.82327576  0.27401861    -0.15500
C937        C  0.77920274  0.81308954  0.29989165    -0.10300
C938        C  0.78188235  0.77790296  0.30776288     0.09000
C939        C  0.71324814  0.74057522  0.25440171     0.10000
S940        S  0.70630622  0.81747507  0.22998603    -0.24700
H941        H  0.75550215  0.85015978  0.26791774     0.20300
S942        S  0.81051332  0.76281133  0.33917596    -0.30400
H943        H  0.76273283  0.72741240  0.29747781     0.10600
C944        C  0.71051778  0.73294910  0.22117599     0.03800
C945        C  0.68084161  0.71736770  0.20959698    -0.12700
C946        C  0.65419121  0.70842982  0.23074672    -0.08300
C947        C  0.65930046  0.71204222  0.26465569     0.07300
C948        C  0.68860416  0.72843750  0.27592409    -0.13400
S949        S  0.74423942  0.74429632  0.19351637    -0.30300
H950        H  0.67782376  0.71347252  0.18377788     0.11500
S951        S  0.62820030  0.69832968  0.29415730    -0.27400
H952        H  0.69132684  0.73387660  0.30154070     0.08700
H953        H  0.80129108  0.72815568  0.33795582     0.27200
H954        H  0.72857962  0.73200535  0.16518952     0.22000
H955        H  0.64876465  0.70233804  0.32184300     0.27300
H956        H  0.67914528  0.79674563  0.23983550     0.16100
C957        C  0.51520168  0.52790812  0.15888049    -0.11200
C958        C  0.53091401  0.51970131  0.12933296     0.15400
C959        C  0.55006301  0.54475671  0.11308138     0.02300
C960        C  0.55422554  0.57685761  0.12723775    -0.15500
C961        C  0.53866508  0.58537897  0.15686778    -0.10300
C962        C  0.51880849  0.56047420  0.17290409     0.09000
C963        C  0.52722779  0.48488404  0.11579834     0.10000
S964        S  0.56936529  0.53766765  0.07390208    -0.24700
H965        H  0.56909194  0.59572885  0.11440725     0.20300
S966        S  0.49909253  0.56907164  0.21169637    -0.30400
H967        H  0.50042424  0.50853272  0.17105528     0.10600
C968        C  0.55512750  0.46219856  0.11359238     0.03800
C969        C  0.55206633  0.43242435  0.09503890    -0.12700
C970        C  0.52242249  0.42576933  0.07655807    -0.08300
C971        C  0.49228876  0.44456952  0.08567501     0.07300
C972        C  0.49560122  0.47486713  0.10369041    -0.13400
S973        S  0.59510831  0.47191378  0.13316108    -0.30300
H974        H  0.57419816  0.41621700  0.09225579     0.11500
S975        S  0.44936680  0.42952485  0.07879064    -0.27400
H976        H  0.47358339  0.49118697  0.10805914     0.08700
H977        H  0.48583635  0.53621731  0.21679681     0.27200
H978        H  0.61407171  0.44440660  0.12012720     0.22000
H979        H  0.43168153  0.45567167  0.09538910     0.27300
H980        H  0.54448568  0.51520278  0.06219894     0.16100
C981        C  0.48652778  0.82167486  0.00710976    -0.11200
C982        C  0.48658316  0.83101043  0.03986439     0.15400
C983        C  0.47406664  0.86365884  0.04900559     0.02300
C984        C  0.45972943  0.88530008  0.02543805    -0.15500
C985        C  0.45824044  0.87532673  0.99274939    -0.10300
C986        C  0.47309500  0.84360129  0.98345031     0.09000
C987        C  0.49830905  0.80536348  0.06389364     0.10000
S988        S  0.47482620  0.87873839  0.09034294    -0.24700
H989        H  0.44892956  0.90973542  0.03282790     0.20300
S990        S  0.47651991  0.82981193  0.94182671    -0.30400
H991        H  0.49682887  0.79693948  0.99996265     0.10600
C992        C  0.47488726  0.78685637  0.08263727     0.03800
C993        C  0.48700512  0.76270559  0.10514642    -0.12700
C994        C  0.52215439  0.75630936  0.10912684    -0.08300
C995        C  0.54543124  0.77380840  0.08894133     0.07300
C996        C  0.53327466  0.79834805  0.06691356    -0.13400
S997        S  0.42953207  0.79375577  0.07758727    -0.30300
H998        H  0.46897154  0.74923736  0.12018579     0.11500
S999        S  0.59068609  0.76523544  0.08901464    -0.27400
H1000       H  0.55118400  0.81189434  0.05173605     0.08700
H1001       H  0.48374792  0.86254259  0.92955037     0.27200
H1002       H  0.41897121  0.76976756  0.10081549     0.22000
H1003       H  0.58723129  0.72953036  0.09161770     0.27300
H1004       H  0.50349986  0.85944767  0.10017162     0.16100
C1005       C  0.91708594  0.60139947  0.29097178    -0.11200
C1006       C  0.88307629  0.60799081  0.28231583     0.15400
C1007       C  0.87577238  0.63127091  0.25699913     0.02300
C1008       C  0.90260537  0.64354683  0.23801689    -0.15500
C1009       C  0.93647219  0.63345113  0.24437775    -0.10300
C1010       C  0.94382960  0.61424565  0.27259812     0.09000
C1011       C  0.85718138  0.58532177  0.29650257     0.10000
S1012       S  0.83283751  0.64406182  0.24637618    -0.24700
H1013       H  0.89676861  0.65903090  0.21689109     0.20300
S1014       S  0.98668030  0.60394064  0.28565266    -0.30400
H1015       H  0.92284991  0.58431026  0.31100320     0.10600
C1016       C  0.84366693  0.55825401  0.27804958     0.03800
C1017       C  0.82688035  0.53167812  0.29385454    -0.12700
C1018       C  0.82470218  0.53070856  0.32779433    -0.08300
C1019       C  0.83592405  0.55904721  0.34605604     0.07300
C1020       C  0.85196597  0.58615555  0.33011810    -0.13400
S1021       S  0.85153511  0.55502141  0.23493074    -0.30300
H1022       H  0.81813267  0.51003709  0.27986905     0.11500
S1023       S  0.83087098  0.56056712  0.38959048    -0.27400
H1024       H  0.86251767  0.60703919  0.34399964     0.08700
H1025       H  0.00138167  0.63367513  0.27279061     0.27200
H1026       H  0.83702487  0.52265021  0.23022909     0.22000
H1027       H  0.84582182  0.59271654  0.39440516     0.27300
H1028       H  0.81817713  0.63610133  0.27650061     0.16100
C1029       C  0.13866490  0.56199007  0.32539711    -0.11200
C1030       C  0.15837166  0.56177932  0.29706505     0.15400
C1031       C  0.18979611  0.54384913  0.29657591     0.02300
C1032       C  0.19960586  0.52457802  0.32366339    -0.15500
C1033       C  0.17941682  0.52398152  0.35178344    -0.10300
C1034       C  0.14885793  0.54351213  0.35286230     0.09000
C1035       C  0.14363905  0.57863939  0.26815395     0.10000
S1036       S  0.21830183  0.54440951  0.26227157    -0.24700
H1037       H  0.22334536  0.51010360  0.32286968     0.20300
S1038       S  0.12121799  0.54318452  0.38796247    -0.30400
H1039       H  0.11456033  0.57582328  0.32548324     0.10600
C1040       C  0.13097441  0.55939445  0.24195363     0.03800
C1041       C  0.11098680  0.57574999  0.21831300    -0.12700
C1042       C  0.10265442  0.61072635  0.22078564    -0.08300
C1043       C  0.11793005  0.63040578  0.24552316     0.07300
C1044       C  0.13789510  0.61408257  0.26909129    -0.13400
S1045       S  0.13670805  0.51345158  0.24044617    -0.30300
H1046       H  0.09939268  0.56055716  0.19942065     0.11500
S1047       S  0.11235094  0.67612008  0.24891182    -0.27400
H1048       H  0.14802898  0.62890808  0.28903780     0.08700
H1049       H  0.09660978  0.56658025  0.37623574     0.27200
H1050       H  0.12314696  0.50874098  0.20919284     0.22000
H1051       H  0.11045388  0.68179261  0.21525903     0.27300
H1052       H  0.20695118  0.57594769  0.24961775     0.16100
C1053       C  0.02516713  0.79283969  0.09791523    -0.11200
C1054       C  0.05982610  0.79978454  0.09333890     0.15400
C1055       C  0.08465405  0.77545442  0.10316599     0.02300
C1056       C  0.07420068  0.74455199  0.11682668    -0.15500
C1057       C  0.03950335  0.73770838  0.12175403    -0.10300
C1058       C  0.01471806  0.76203933  0.11166882     0.09000
C1059       C  0.06885916  0.83262303  0.07803575     0.10000
S1060       S  0.12992036  0.78240653  0.09950688    -0.24700
H1061       H  0.09340355  0.72609618  0.12454807     0.20300
S1062       S  0.96946707  0.75476278  0.11409747    -0.30400
H1063       H  0.00606669  0.81135083  0.09006364     0.10600
C1064       C  0.08083658  0.83424413  0.04612106     0.03800
C1065       C  0.08751725  0.86614850  0.03237614    -0.12700
C1066       C  0.08273879  0.89744100  0.04941281    -0.08300
C1067       C  0.06731656  0.89511854  0.08101198     0.07300
C1068       C  0.06206890  0.86284662  0.09493530    -0.13400
S1069       S  0.08633484  0.79575256  0.02228698    -0.30300
H1070       H  0.09697183  0.86673358  0.00787261     0.11500
S1071       S  0.04776053  0.93052910  0.10281011    -0.27400
H1072       H  0.05061094  0.86093180  0.11874013     0.08700
H1073       H  0.97172196  0.72006448  0.10510546     0.27200
H1074       H  0.09390930  0.81189214  0.99271653     0.22000
H1075       H  0.04882332  0.91569445  0.13388432     0.27300
H1076       H  0.12851927  0.81831565  0.10109639     0.16100
C1077       C  0.85590380  0.60237694  0.82403705    -0.11200
C1078       C  0.85288861  0.59727555  0.79052715     0.15400
C1079       C  0.83018088  0.57235723  0.77884290     0.02300
C1080       C  0.81442808  0.55026597  0.80076325    -0.15500
C1081       C  0.82091180  0.55265046  0.83416703    -0.10300
C1082       C  0.83999477  0.58046998  0.84604273     0.09000
C1083       C  0.87977300  0.61177069  0.76964411     0.10000
S1084       S  0.82269791  0.56577852  0.73616315    -0.24700
H1085       H  0.79920956  0.52948847  0.79143396     0.20300
S1086       S  0.84540962  0.58754923  0.88908479    -0.30400
H1087       H  0.87301451  0.62181431  0.83290335     0.10600
C1088       C  0.88493092  0.64724259  0.76679417     0.03800
C1089       C  0.91493169  0.65904238  0.75221382    -0.12700
C1090       C  0.93968858  0.63600936  0.74020050    -0.08300
C1091       C  0.93365151  0.60041045  0.74188778     0.07300
C1092       C  0.90379797  0.58884621  0.75654693    -0.13400
S1093       S  0.85355155  0.67732563  0.78207438    -0.30300
H1094       H  0.91946297  0.68627263  0.75072070     0.11500
S1095       S  0.96509080  0.56909211  0.72873823    -0.27400
H1096       H  0.89998451  0.56163221  0.75959760     0.08700
H1097       H  0.86848622  0.61471903  0.88672569     0.27200
H1098       H  0.86934182  0.70705316  0.77048587     0.22000
H1099       H  0.94498679  0.53986552  0.73305159     0.27300
H1100       H  0.83199368  0.59889032  0.72645776     0.16100
C1101       C  0.88946468  0.28530755  0.75611281    -0.11200
C1102       C  0.90329731  0.30978325  0.77700895     0.15400
C1103       C  0.93861065  0.31602671  0.77638828     0.02300
C1104       C  0.95889083  0.29976913  0.75319526    -0.15500
C1105       C  0.94493783  0.27666536  0.73091238    -0.10300
C1106       C  0.91001613  0.26827582  0.73336281     0.09000
C1107       C  0.88014544  0.33232594  0.79555084     0.10000
S1108       S  0.95875011  0.34667203  0.80268016    -0.24700
H1109       H  0.98571167  0.30605945  0.75190912     0.20300
S1110       S  0.88951330  0.23903230  0.70609442    -0.30400
H1111       H  0.86227659  0.28063313  0.75654286     0.10600
C1112       C  0.86952871  0.36397526  0.78254399     0.03800
C1113       C  0.85180461  0.38724419  0.80221208    -0.12700
C1114       C  0.84475906  0.37965734  0.83480504    -0.08300
C1115       C  0.85358091  0.34688437  0.84717072     0.07300
C1116       C  0.87115666  0.32351075  0.82725969    -0.13400
S1117       S  0.87970280  0.37515907  0.74115917    -0.30300
H1118       H  0.84462204  0.41203047  0.79247862     0.11500
S1119       S  0.84254936  0.33428521  0.88796605    -0.27400
H1120       H  0.87921804  0.29885437  0.83670231     0.08700
H1121       H  0.91137427  0.21157572  0.71437410     0.27200
H1122       H  0.86645124  0.40875408  0.74205343     0.22000
H1123       H  0.85420631  0.30017420  0.88582889     0.27300
H1124       H  0.93777222  0.34076069  0.82962404     0.16100
C1125       C  0.64239093  0.44573422  0.93766283    -0.11200
C1126       C  0.64222484  0.42110824  0.96235372     0.15400
C1127       C  0.67204664  0.40179316  0.96873211     0.02300
C1128       C  0.70173388  0.40835488  0.95133070    -0.15500
C1129       C  0.70270353  0.43452019  0.92801097    -0.10300
C1130       C  0.67216371  0.45241057  0.92019004     0.09000
C1131       C  0.61119153  0.41702027  0.98216119     0.10000
S1132       S  0.67426915  0.37010890  0.00032630    -0.24700
H1133       H  0.72477490  0.39419670  0.95750515     0.20300
S1134       S  0.66920785  0.48346286  0.88799057    -0.30400
H1135       H  0.61925009  0.46009000  0.93226335     0.10600
C1136       C  0.60252339  0.44105011  0.00600643     0.03800
C1137       C  0.57430737  0.43547084  0.02583356    -0.12700
C1138       C  0.55492798  0.40502485  0.02425011    -0.08300
C1139       C  0.56343147  0.38149614  0.99865023     0.07300
C1140       C  0.59126496  0.38798309  0.97820081    -0.13400
S1141       S  0.62807895  0.47867117  0.01211833    -0.30300
H1142       H  0.56746254  0.45596683  0.04201985     0.11500
S1143       S  0.54156895  0.34144995  0.99277072    -0.27400
H1144       H  0.59847469  0.36975349  0.95959912     0.08700
H1145       H  0.69119768  0.46535789  0.86699334     0.27200
H1146       H  0.61720490  0.48508749  0.04405365     0.22000
H1147       H  0.55825162  0.33088991  0.96425201     0.27300
H1148       H  0.65918047  0.39184213  0.02351360     0.16100
C1149       C  0.94154341  0.57321033  0.03939685    -0.11200
C1150       C  0.92876824  0.54109645  0.04801185     0.15400
C1151       C  0.93768717  0.52680720  0.07838057     0.02300
C1152       C  0.95771181  0.54566896  0.09994757    -0.15500
C1153       C  0.96839279  0.57884295  0.09215232    -0.10300
C1154       C  0.96127018  0.59212637  0.06098983     0.09000
C1155       C  0.90564217  0.52385110  0.02494088     0.10000
S1156       S  0.92308484  0.48552674  0.09169406    -0.24700
H1157       H  0.96331560  0.53514131  0.12370068     0.20300
S1158       S  0.97696367  0.63278254  0.04712054    -0.30400
H1159       H  0.93564138  0.58382852  0.01573843     0.10600
C1160       C  0.87347037  0.53819752  0.01727725     0.03800
C1161       C  0.85305107  0.52246670  0.99386989    -0.12700
C1162       C  0.86384882  0.49242367  0.97798174    -0.08300
C1163       C  0.89538892  0.47711966  0.98707031     0.07300
C1164       C  0.91615068  0.49331967  0.00993082    -0.13400
S1165       S  0.85823113  0.57652303  0.03743989    -0.30300
H1166       H  0.82889879  0.53424329  0.98727414     0.11500
S1167       S  0.91024059  0.43662911  0.97126815    -0.27400
H1168       H  0.94064674  0.48198434  0.01619651     0.08700
H1169       H  0.00805214  0.63057196  0.06412262     0.27200
H1170       H  0.82708701  0.57960737  0.02067889     0.22000
H1171       H  0.87780398  0.42158197  0.97149922     0.27300
H1172       H  0.89144628  0.48700085  0.07566575     0.16100
loop_ 
_geom_bond_atom_site_label_1 
_geom_bond_atom_site_label_2 
_geom_bond_distance 
_geom_bond_site_symmetry_2 
_ccdc_geom_bond_type 
O1            C4   1.264       .  A
O1           Cd6   2.456       .  S
C2           O11   1.265       .  A
C2            O7   1.267       .  A
C2         C1162   1.484       .  S
O3            C9   1.262       .  A
O3           Cd6   2.419       .  S
C4           O12   1.265       .  A
C4         C1114   1.480       .  S
C5           O10   1.265       .  A
C5            O8   1.264       .  A
C5         C1129   1.479       .  S
Cd6          O13   2.495       .  S
Cd6          O12   2.453       .  S
Cd6          O11   2.464       .  S
Cd6           O7   2.458       .  S
Cd6          O10   2.464       .  S
Cd6           O8   2.446       .  S
C9           O13   1.267       .  A
C9         C1081   1.478       .  S
O14          C17   1.266       .  A
O14         Cd19   2.439       .  S
C15          O24   1.263       .  A
C15          O20   1.264   1_655  A
C15        C1153   1.475       .  S
O16          C22   1.262       .  A
O16         Cd19   2.422   1_655  S
C17          O25   1.267       .  A
C17        C1042   1.478       .  S
C18          O23   1.266       .  A
C18          O21   1.265       .  A
C18        C1057   1.474       .  S
Cd19         O26   2.492   1_455  S
Cd19         O25   2.448       .  S
Cd19         O24   2.445   1_455  S
Cd19         O20   2.482       .  S
Cd19         O23   2.450       .  S
Cd19         O21   2.446       .  S
C22          O26   1.266       .  A
C22        C1009   1.473       .  S
O27          C30   1.266       .  A
O27         Cd32   2.469       .  S
C28          O37   1.262       .  A
C28          O33   1.266       .  A
C28         C946   1.489       .  S
O29          C35   1.266       .  A
O29         Cd32   2.491       .  S
C30          O38   1.265       .  A
C30         C994   1.486       .  S
C31          O36   1.264       .  A
C31          O34   1.264       .  A
C31         C961   1.485       .  S
Cd32         O39   2.434       .  S
Cd32         O38   2.466       .  S
Cd32         O37   2.453       .  S
Cd32         O33   2.476       .  S
Cd32         O36   2.455       .  S
Cd32         O34   2.482       .  S
C35          O39   1.265       .  A
C35         C922   1.487       .  S
O40          C43   1.267       .  A
O40         Cd45   2.492       .  S
C41          O50   1.265   1_545  A
C41          O46   1.265   1_545  A
C41         C865   1.484       .  S
O42          C48   1.265       .  A
O42         Cd45   2.470       .  S
C43          O51   1.262       .  A
C43         C985   1.479       .  S
C44          O49   1.265       .  A
C44          O47   1.265       .  A
C44         C898   1.482       .  S
Cd45         O52   2.439       .  S
Cd45         O51   2.431       .  S
Cd45         O50   2.461       .  S
Cd45         O46   2.468       .  S
Cd45         O49   2.451       .  S
Cd45         O47   2.458       .  S
C48          O52   1.265       .  A
C48         C841   1.482       .  S
O53          C56   1.264       .  A
O53         Cd58   2.432       .  S
C54          O63   1.262       .  A
C54          O59   1.263       .  A
C54         C826   1.481       .  S
O55          C61   1.265       .  A
O55         Cd58   2.464       .  S
C56          O64   1.267       .  A
C56         C769   1.480       .  S
C57          O62   1.264       .  A
C57          O60   1.263       .  A
C57         C754   1.475       .  S
Cd58         O65   2.443       .  S
Cd58         O64   2.461       .  S
Cd58         O63   2.432       .  S
Cd58         O59   2.489       .  S
Cd58         O62   2.472       .  S
Cd58         O60   2.445       .  S
C61          O65   1.266       .  A
C61         C793   1.483       .  S
O66          C69   1.262       .  A
O66         Cd71   2.443       .  S
C67          O76   1.263       .  A
C67          O72   1.268       .  A
C67         C697   1.483       .  S
O68          C74   1.266   1_565  A
O68         Cd71   2.474       .  S
C69          O77   1.267       .  A
C69         C817   1.480       .  S
C70          O75   1.264       .  A
C70          O73   1.263       .  A
C70         C721   1.479       .  S
Cd71         O78   2.448   1_565  S
Cd71         O77   2.458       .  S
Cd71         O76   2.435       .  S
Cd71         O72   2.467       .  S
Cd71         O75   2.474       .  S
Cd71         O73   2.466       .  S
C74          O78   1.264       .  A
C74         C682   1.480       .  S
O79          C82   1.265       .  A
O79         Cd84   2.455       .  S
C80          O89   1.265       .  A
C80          O85   1.264       .  A
C80         C610   1.484   1_455  S
O81          C87   1.264       .  A
O81         Cd84   2.467       .  S
C82          O90   1.267       .  A
C82         C658   1.490       .  S
C83          O88   1.263       .  A
C83          O86   1.266       .  A
C83         C577   1.478       .  S
Cd84         O91   2.473       .  S
Cd84         O90   2.475       .  S
Cd84         O89   2.450       .  S
Cd84         O85   2.466       .  S
Cd84         O88   2.433       .  S
Cd84         O86   2.490       .  S
C87          O91   1.265       .  A
C87         C634   1.482       .  S
O92          C95   1.266       .  A
O92         Cd97   2.476       .  S
C93         O102   1.263       .  A
C93          O98   1.267       .  A
C93         C649   1.494       .  S
O94         C100   1.266       .  A
O94         Cd97   2.482       .  S
C95         O103   1.264       .  A
C95         C538   1.490       .  S
C96         O101   1.264       .  A
C96          O99   1.265       .  A
C96         C562   1.481       .  S
Cd97        O104   2.427       .  S
Cd97        O103   2.469       .  S
Cd97        O102   2.467       .  S
Cd97         O98   2.479       .  S
Cd97        O101   2.464       .  S
Cd97         O99   2.447       .  S
C100        O104   1.264       .  A
C100        C514   1.475       .  S
C105        C625   1.571       .  S
C105        C730   1.566       .  S
C105        C889   1.575       .  S
C105       C1066   1.579       .  S
C106        C553   1.573       .  S
C106        C802   1.572       .  S
C106        C970   1.572       .  S
C106       C1138   1.573       .  S
O107        C110   1.268       .  A
O107       Cd112   2.470       .  S
C108        O117   1.264       .  A
C108        O113   1.266   1_655  A
C108        C481   1.485       .  S
O109        C115   1.266       .  A
O109       Cd112   2.435       .  S
C110        O118   1.265       .  A
C110        C505   1.480       .  S
C111        O116   1.265       .  A
C111        O114   1.264       .  A
C111       C1105   1.476       .  S
Cd112       O119   2.440       .  S
Cd112       O118   2.430       .  S
Cd112       O117   2.442   1_455  S
Cd112       O113   2.469       .  S
Cd112       O116   2.471   1_455  S
Cd112       O114   2.422   1_455  S
C115        O119   1.265       .  A
C115        C457   1.474       .  S
O120        C123   1.267       .  A
O120       Cd125   2.466       .  S
C121        O130   1.265       .  A
C121        O126   1.266       .  A
C121       C1018   1.477       .  S
O122        C128   1.268       .  A
O122       Cd125   2.474       .  S
C123        O131   1.264       .  A
C123        C490   1.477       .  S
C124        O129   1.264       .  A
C124        O127   1.266       .  A
C124        C433   1.474       .  S
Cd125       O132   2.422       .  S
Cd125       O131   2.430       .  S
Cd125       O130   2.443       .  S
Cd125       O126   2.446       .  S
Cd125       O129   2.416       .  S
Cd125       O127   2.469       .  S
C128        O132   1.263       .  A
C128        C601   1.477       .  S
O133        C136   1.266       .  A
O133       Cd138   2.449       .  S
C134        O143   1.266       .  A
C134        O139   1.264       .  A
C134        C418   1.469       .  S
O135        C141   1.262       .  A
O135       Cd138   2.405       .  S
C136        O144   1.266       .  A
C136        C850   1.484       .  S
C137        O142   1.268       .  A
C137        O140   1.265       .  A
C137        C394   1.480       .  S
Cd138       O145   2.495       .  S
Cd138       O144   2.436       .  S
Cd138       O143   2.460       .  S
Cd138       O139   2.431       .  S
Cd138       O142   2.446       .  S
Cd138       O140   2.444       .  S
C141        O145   1.268       .  A
C141        C706   1.473       .  S
O146        C149   1.264       .  A
O146       Cd151   2.445       .  S
C147        O156   1.266       .  A
C147        O152   1.263       .  A
C147        C409   1.476       .  S
O148        C154   1.263       .  A
O148       Cd151   2.457       .  S
C149        O157   1.267       .  A
C149        C745   1.485       .  S
C150        O155   1.264       .  A
C150        O153   1.265       .  A
C150        C370   1.485       .  S
Cd151       O158   2.452       .  S
Cd151       O157   2.453       .  S
Cd151       O156   2.464       .  S
Cd151       O152   2.448       .  S
Cd151       O155   2.472       .  S
Cd151       O153   2.438       .  S
C154        O158   1.265       .  A
C154        C937   1.481       .  S
O159        C162   1.264       .  A
O159       Cd164   2.447       .  S
C160        O169   1.263       .  A
C160        O165   1.267       .  A
C160       C1090   1.479       .  S
O161        C167   1.263       .  A
O161       Cd164   2.450       .  S
C162        O170   1.265       .  A
C162        C346   1.474       .  S
C163        O168   1.266       .  A
C163        O166   1.265       .  A
C163        C322   1.484       .  S
Cd164       O171   2.480       .  S
Cd164       O170   2.457       .  S
Cd164       O169   2.437   1_455  S
Cd164       O165   2.473   1_455  S
Cd164       O168   2.468       .  S
Cd164       O166   2.446       .  S
C167        O171   1.264       .  A
C167        C529   1.476       .  S
O172        C175   1.265       .  A
O172       Cd177   2.439       .  S
C173        O182   1.263       .  A
C173        O178   1.266       .  A
C173        C586   1.478       .  S
O174        C180   1.262       .  A
O174       Cd177   2.451       .  S
C175        O183   1.266       .  A
C175        C337   1.473       .  S
C176        O181   1.264       .  A
C176        O179   1.264       .  A
C176        C289   1.464       .  S
Cd177       O184   2.460       .  S
Cd177       O183   2.454       .  S
Cd177       O182   2.429       .  S
Cd177       O178   2.472       .  S
Cd177       O181   2.457       .  S
Cd177       O179   2.420       .  S
C180        O184   1.263       .  A
C180       C1033   1.475       .  S
O185        C188   1.260       .  A
O185       Cd190   2.431       .  S
C186        O195   1.268       .  A
C186        O191   1.267       .  A
C186        C274   1.487       .  S
O187        C193   1.262       .  A
O187       Cd190   2.430       .  S
C188        O196   1.265       .  A
C188        C673   1.481       .  S
C189        O194   1.261       .  A
C189        O192   1.265       .  A
C189        C241   1.479       .  S
Cd190       O197   2.502       .  S
Cd190       O196   2.507       .  S
Cd190       O195   2.475       .  S
Cd190       O191   2.427       .  S
Cd190       O194   2.436       .  S
Cd190       O192   2.499       .  S
C193        O197   1.266       .  A
C193        C874   1.483       .  S
O198        C201   1.265       .  A
O198       Cd203   2.468       .  S
C199        O208   1.266       .  A
C199        O204   1.263       .  A
C199        C913   1.483       .  S
O200        C206   1.264       .  A
O200       Cd203   2.472       .  S
C201        O209   1.266   1_565  A
C201        C265   1.491   1_565  S
C202        O207   1.265       .  A
C202        O205   1.263       .  A
C202        C778   1.487       .  S
Cd203       O210   2.458       .  S
Cd203       O209   2.458   1_565  S
Cd203       O208   2.475       .  S
Cd203       O204   2.446       .  S
Cd203       O207   2.466       .  S
Cd203       O205   2.453       .  S
C206        O210   1.264       .  A
C206        C226   1.480       .  S
C211        C217   1.566       .  S
C211        C313   1.575       .  S
C211        C361   1.580       .  S
C211        C466   1.584       .  S
C212        C250   1.569       .  S
C212        C298   1.570       .  S
C212        C385   1.579       .  S
C212        C442   1.580       .  S
C213        C214   1.395       .  A
C213        C218   1.404       .  A
C213        H223   1.083       .  S
C214        C219   1.474       .  S
C214        C215   1.401       .  A
C215        C216   1.393       .  A
C215        S220   1.805   1_565  S
C216        C217   1.422       .  A
C216        H221   1.074       .  S
C217        C218   1.437       .  A
C218        S222   1.813       .  S
C219        C224   1.407       .  A
C219        C228   1.400       .  A
S220        H236   1.405       .  S
S222        H233   1.406       .  S
C224        C225   1.400       .  A
C224        S229   1.807       .  S
C225        C226   1.406       .  A
C225        H230   1.083       .  S
C226        C227   1.417       .  A
C227        C228   1.399       .  A
C227        S231   1.802       .  S
C228        H232   1.084       .  S
S229        H234   1.406       .  S
S231        H235   1.407       .  S
C237        C238   1.401       .  A
C237        C242   1.399       .  A
C237        H247   1.083       .  S
C238        C243   1.477       .  S
C238        C239   1.411       .  A
C239        C240   1.402       .  A
C239        S244   1.804       .  S
C240        C241   1.406       .  A
C240        H245   1.084       .  S
C241        C242   1.414       .  A
C242        S246   1.810       .  S
C243        C248   1.400       .  A
C243        C252   1.395       .  A
S244        H260   1.405       .  S
S246        H257   1.407       .  S
C248        C249   1.395       .  A
C248        S253   1.809       .  S
C249        C250   1.419       .  A
C249        H254   1.071       .  S
C250        C251   1.437       .  A
C251        C252   1.407       .  A
C251        S255   1.810       .  S
C252        H256   1.082       .  S
S253        H258   1.407       .  S
S255        H259   1.406       .  S
C261        C262   1.400       .  A
C261        C266   1.406   1_545  A
C261        H271   1.083   1_545  S
C262        C267   1.480       .  S
C262        C263   1.409       .  A
C263        C264   1.396       .  A
C263        S268   1.805       .  S
C264        C265   1.408       .  A
C264        H269   1.083       .  S
C265        C266   1.421   1_545  A
C266        S270   1.809       .  S
C267        C272   1.407       .  A
C267        C276   1.402       .  A
S268        H284   1.406       .  S
S270        H281   1.407       .  S
C272        C273   1.398       .  A
C272        S277   1.808       .  S
C273        C274   1.407       .  A
C273        H278   1.082       .  S
C274        C275   1.419       .  A
C275        C276   1.402       .  A
C275        S279   1.801       .  S
C276        H280   1.084       .  S
S277        H282   1.406       .  S
S279        H283   1.408       .  S
C285        C286   1.399       .  A
C285        C290   1.391       .  A
C285        H295   1.084       .  S
C286        C291   1.467       .  S
C286        C287   1.410       .  A
C287        C288   1.398       .  A
C287        S292   1.804       .  S
C288        C289   1.403       .  A
C288        H293   1.084       .  S
C289        C290   1.411       .  A
C290        S294   1.804       .  S
C291        C296   1.395       .  A
C291        C300   1.392       .  A
S292        H308   1.406       .  S
S294        H305   1.407       .  S
C296        C297   1.393       .  A
C296        S301   1.807       .  S
C297        C298   1.423       .  A
C297        H302   1.081       .  S
C298        C299   1.442       .  A
C299        C300   1.401       .  A
C299        S303   1.813       .  S
C300        H304   1.084       .  S
S301        H306   1.407       .  S
S303        H307   1.407       .  S
C309        C310   1.394       .  A
C309        C314   1.402       .  A
C309        H319   1.085       .  S
C310        C315   1.475       .  S
C310        C311   1.400       .  A
C311        C312   1.393       .  A
C311        S316   1.805   1_455  S
C312        C313   1.425       .  A
C312        H317   1.082       .  S
C313        C314   1.444       .  A
C314        S318   1.812       .  S
C315        C320   1.407       .  A
C315        C324   1.400       .  A
S316        H332   1.405       .  S
S318        H329   1.394       .  S
C320        C321   1.400       .  A
C320        S325   1.809       .  S
C321        C322   1.408       .  A
C321        H326   1.082       .  S
C322        C323   1.417       .  A
C323        C324   1.399       .  A
C323        S327   1.801       .  S
C324        H328   1.084       .  S
S325        H330   1.407   1_455  S
S327        H331   1.408       .  S
C333        C334   1.402       .  A
C333        C338   1.397       .  A
C333        H343   1.084       .  S
C334        C339   1.475       .  S
C334        C335   1.411       .  A
C335        C336   1.397       .  A
C335        S340   1.804       .  S
C336        C337   1.403       .  A
C336        H341   1.084       .  S
C337        C338   1.414       .  A
C338        S342   1.803       .  S
C339        C344   1.408       .  A
C339        C348   1.401       .  A
S340        H356   1.406       .  S
S342        H353   1.407       .  S
C344        C345   1.401       .  A
C344        S349   1.807       .  S
C345        C346   1.405       .  A
C345        H350   1.083       .  S
C346        C347   1.413       .  A
C347        C348   1.396       .  A
C347        S351   1.803       .  S
C348        H352   1.084       .  S
S349        H354   1.407       .  S
S351        H355   1.407       .  S
C357        C358   1.395   1_455  A
C357        C362   1.402       .  A
C357        H367   1.083       .  S
C358        C363   1.475       .  S
C358        C359   1.403       .  A
C359        C360   1.394   1_655  A
C359        S364   1.805       .  S
C360        C361   1.422       .  A
C360        H365   1.078       .  S
C361        C362   1.437       .  A
C362        S366   1.812       .  S
C363        C368   1.407       .  A
C363        C372   1.401       .  A
S364        H380   1.406       .  S
S366        H377   1.406   1_565  S
C368        C369   1.397       .  A
C368        S373   1.808       .  S
C369        C370   1.406       .  A
C369        H374   1.082       .  S
C370        C371   1.419       .  A
C371        C372   1.401       .  A
C371        S375   1.801       .  S
C372        H376   1.084       .  S
S373        H378   1.406       .  S
S375        H379   1.408       .  S
C381        C382   1.396       .  A
C381        C386   1.401       .  A
C381        H391   1.083       .  S
C382        C387   1.483       .  S
C382        C383   1.403       .  A
C383        C384   1.399       .  A
C383        S388   1.809       .  S
C384        C385   1.421       .  A
C384        H389   1.077       .  S
C385        C386   1.434       .  A
C386        S390   1.811       .  S
C387        C392   1.410       .  A
C387        C396   1.403       .  A
S388        H404   1.407       .  S
S390        H401   1.406       .  S
C392        C393   1.400       .  A
C392        S397   1.808       .  S
C393        C394   1.404       .  A
C393        H398   1.083       .  S
C394        C395   1.416       .  A
C395        C396   1.402       .  A
C395        S399   1.809       .  S
C396        H400   1.083       .  S
S397        H402   1.407       .  S
S399        H403   1.407       .  S
C405        C406   1.401       .  A
C405        C410   1.398       .  A
C405        H415   1.084       .  S
C406        C411   1.475       .  S
C406        C407   1.411       .  A
C407        C408   1.396       .  A
C407        S412   1.805       .  S
C408        C409   1.404       .  A
C408        H413   1.084       .  S
C409        C410   1.416       .  A
C410        S414   1.803       .  S
C411        C416   1.408       .  A
C411        C420   1.402       .  A
S412        H428   1.406       .  S
S414        H425   1.407       .  S
C416        C417   1.400       .  A
C416        S421   1.807       .  S
C417        C418   1.402       .  A
C417        H422   1.083       .  S
C418        C419   1.410       .  A
C419        C420   1.401       .  A
C419        S423   1.808       .  S
C420        H424   1.083       .  S
S421        H426   1.407       .  S
S423        H427   1.407       .  S
C429        C430   1.400       .  A
C429        C434   1.404       .  A
C429        H439   1.083       .  S
C430        C435   1.469       .  S
C430        C431   1.409       .  A
C431        C432   1.391       .  A
C431        S436   1.806       .  S
C432        C433   1.403       .  A
C432        H437   1.084       .  S
C433        C434   1.415       .  A
C434        S438   1.807       .  S
C435        C440   1.399       .  A
C435        C444   1.392       .  A
S436        H452   1.405       .  S
S438        H449   1.407       .  S
C440        C441   1.395       .  A
C440        S445   1.807       .  S
C441        C442   1.421       .  A
C441        H446   1.077       .  S
C442        C443   1.434       .  A
C443        C444   1.401       .  A
C443        S447   1.802       .  S
C444        H448   1.083       .  S
S445        H450   1.407       .  S
S447        H451   1.407       .  S
C453        C454   1.401       .  A
C453        C458   1.395       .  A
C453        H463   1.084       .  S
C454        C459   1.475       .  S
C454        C455   1.410       .  A
C455        C456   1.396       .  A
C455        S460   1.804       .  S
C456        C457   1.405       .  A
C456        H461   1.084       .  S
C457        C458   1.415       .  A
C458        S462   1.803       .  S
C459        C464   1.399       .  A
C459        C468   1.393       .  A
S460        H476   1.406       .  S
S462        H473   1.408       .  S
C464        C465   1.398   1_545  A
C464        S469   1.809   1_455  S
C465        C466   1.424       .  A
C465        H470   1.075       .  S
C466        C467   1.435       .  A
C467        C468   1.401   1_565  A
C467        S471   1.804       .  S
C468        H472   1.083       .  S
S469        H474   1.404       .  S
S471        H475   1.406       .  S
C477        C478   1.400       .  A
C477        C482   1.399       .  A
C477        H487   1.084       .  S
C478        C483   1.475       .  S
C478        C479   1.409       .  A
C479        C480   1.397       .  A
C479        S484   1.805       .  S
C480        C481   1.408       .  A
C480        H485   1.084       .  S
C481        C482   1.418       .  A
C482        S486   1.801   1_655  S
C483        C488   1.408       .  A
C483        C492   1.399       .  A
S484        H500   1.406       .  S
S486        H497   1.408       .  S
C488        C489   1.403       .  A
C488        S493   1.806       .  S
C489        C490   1.406       .  A
C489        H494   1.083       .  S
C490        C491   1.416       .  A
C491        C492   1.395       .  A
C491        S495   1.804       .  S
C492        H496   1.084       .  S
S493        H498   1.407       .  S
S495        H499   1.408       .  S
C501        C502   1.402       .  A
C501        C506   1.401       .  A
C501        H511   1.084       .  S
C502        C507   1.473       .  S
C502        C503   1.411       .  A
C503        C504   1.394       .  A
C503        S508   1.808       .  S
C504        C505   1.405       .  A
C504        H509   1.084       .  S
C505        C506   1.415       .  A
C506        S510   1.802       .  S
C507        C512   1.407       .  A
C507        C516   1.399       .  A
S508        H524   1.404       .  S
S510        H521   1.407       .  S
C512        C513   1.404       .  A
C512        S517   1.805       .  S
C513        C514   1.406       .  A
C513        H518   1.083       .  S
C514        C515   1.413       .  A
C515        C516   1.398       .  A
C515        S519   1.809       .  S
C516        H520   1.083       .  S
S517        H522   1.407       .  S
S519        H523   1.407       .  S
C525        C526   1.401       .  A
C525        C530   1.394       .  A
C525        H535   1.084       .  S
C526        C531   1.484       .  S
C526        C527   1.414       .  A
C527        C528   1.405       .  A
C527        S532   1.803       .  S
C528        C529   1.405       .  A
C528        H533   1.084       .  S
C529        C530   1.413       .  A
C530        S534   1.802       .  S
C531        C536   1.408       .  A
C531        C540   1.401       .  A
S532        H548   1.406       .  S
S534        H545   1.407       .  S
C536        C537   1.403       .  A
C536        S541   1.807       .  S
C537        C538   1.407       .  A
C537        H542   1.082       .  S
C538        C539   1.420       .  A
C539        C540   1.404       .  A
C539        S543   1.808       .  S
C540        H544   1.083       .  S
S541        H546   1.407       .  S
S543        H547   1.407       .  S
C549        C550   1.394       .  A
C549        C554   1.403   1_556  A
C549        H559   1.083       .  S
C550        C555   1.475       .  S
C550        C551   1.402   1_556  A
C551        C552   1.396       .  A
C551        S556   1.806       .  S
C552        C553   1.422       .  A
C552        H557   1.076       .  S
C553        C554   1.437       .  A
C554        S558   1.809       .  S
C555        C560   1.406       .  A
C555        C564   1.401       .  A
S556        H572   1.404   1_554  S
S558        H569   1.407   1_554  S
C560        C561   1.399       .  A
C560        S565   1.807   1_556  S
C561        C562   1.405       .  A
C561        H566   1.083       .  S
C562        C563   1.416       .  A
C563        C564   1.404       .  A
C563        S567   1.808       .  S
C564        H568   1.083       .  S
S565        H570   1.407       .  S
S567        H571   1.407       .  S
C573        C574   1.402       .  A
C573        C578   1.394       .  A
C573        H583   1.084       .  S
C574        C579   1.479       .  S
C574        C575   1.411       .  A
C575        C576   1.403       .  A
C575        S580   1.803       .  S
C576        C577   1.407       .  A
C576        H581   1.084       .  S
C577        C578   1.413       .  A
C578        S582   1.804       .  S
C579        C584   1.408       .  A
C579        C588   1.402       .  A
S580        H596   1.406       .  S
S582        H593   1.407       .  S
C584        C585   1.401       .  A
C584        S589   1.806       .  S
C585        C586   1.405       .  A
C585        H590   1.083       .  S
C586        C587   1.414       .  A
C587        C588   1.401       .  A
C587        S591   1.808       .  S
C588        H592   1.083       .  S
S589        H594   1.407       .  S
S591        H595   1.407       .  S
C597        C598   1.402       .  A
C597        C602   1.397       .  A
C597        H607   1.084       .  S
C598        C603   1.478       .  S
C598        C599   1.410       .  A
C599        C600   1.399       .  A
C599        S604   1.803       .  S
C600        C601   1.405       .  A
C600        H605   1.084       .  S
C601        C602   1.415       .  A
C602        S606   1.804       .  S
C603        C608   1.406       .  A
C603        C612   1.401       .  A
S604        H620   1.406       .  S
S606        H617   1.408       .  S
C608        C609   1.401       .  A
C608        S613   1.806       .  S
C609        C610   1.407       .  A
C609        H614   1.082       .  S
C610        C611   1.419       .  A
C611        C612   1.403       .  A
C611        S615   1.810       .  S
C612        H616   1.083       .  S
S613        H618   1.407       .  S
S615        H619   1.407       .  S
C621        C622   1.393       .  A
C621        C626   1.403   1_545  A
C621        H631   1.083       .  S
C622        C627   1.479       .  S
C622        C623   1.403   1_545  A
C623        C624   1.398       .  A
C623        S628   1.804       .  S
C624        C625   1.424       .  A
C624        H629   1.083       .  S
C625        C626   1.444       .  A
C626        S630   1.814   1_565  S
C627        C632   1.408       .  A
C627        C636   1.402       .  A
S628        H644   1.405   1_565  S
S630        H641   1.406       .  S
C632        C633   1.403       .  A
C632        S637   1.807       .  S
C633        C634   1.407       .  A
C633        H638   1.082       .  S
C634        C635   1.415       .  A
C635        C636   1.399       .  A
C635        S639   1.802       .  S
C636        H640   1.084       .  S
S637        H642   1.407       .  S
S639        H643   1.407       .  S
C645        C646   1.400       .  A
C645        C650   1.405   1_554  A
C645        H655   1.083       .  S
C646        C651   1.480       .  S
C646        C647   1.409       .  A
C647        C648   1.400   1_554  A
C647        S652   1.804       .  S
C648        C649   1.409       .  A
C648        H653   1.083       .  S
C649        C650   1.422       .  A
C650        S654   1.810       .  S
C651        C656   1.406       .  A
C651        C660   1.399       .  A
S652        H668   1.404       .  S
S654        H665   1.407       .  S
C656        C657   1.404       .  A
C656        S661   1.806       .  S
C657        C658   1.409       .  A
C657        H662   1.082       .  S
C658        C659   1.420       .  A
C659        C660   1.403       .  A
C659        S663   1.809       .  S
C660        H664   1.083       .  S
S661        H666   1.407       .  S
S663        H667   1.407       .  S
C669        C670   1.401       .  A
C669        C674   1.399       .  A
C669        H679   1.083       .  S
C670        C675   1.482       .  S
C670        C671   1.412       .  A
C671        C672   1.401       .  A
C671        S676   1.804       .  S
C672        C673   1.406       .  A
C672        H677   1.084       .  S
C673        C674   1.414       .  A
C674        S678   1.809       .  S
C675        C680   1.412       .  A
C675        C684   1.403       .  A
S676        H692   1.406       .  S
S678        H689   1.407       .  S
C680        C681   1.400       .  A
C680        S685   1.809       .  S
C681        C682   1.405       .  A
C681        H686   1.083       .  S
C682        C683   1.414       .  A
C683        C684   1.400       .  A
C683        S687   1.802       .  S
C684        H688   1.084       .  S
S685        H690   1.407       .  S
S687        H691   1.407       .  S
C693        C694   1.400       .  A
C693        C698   1.403       .  A
C693        H703   1.083       .  S
C694        C699   1.473       .  S
C694        C695   1.412       .  A
C695        C696   1.397       .  A
C695        S700   1.808       .  S
C696        C697   1.405       .  A
C696        H701   1.084       .  S
C697        C698   1.418       .  A
C698        S702   1.809       .  S
C699        C704   1.408       .  A
C699        C708   1.399       .  A
S700        H716   1.401       .  S
S702        H713   1.407       .  S
C704        C705   1.405       .  A
C704        S709   1.805       .  S
C705        C706   1.405       .  A
C705        H710   1.083       .  S
C706        C707   1.415       .  A
C707        C708   1.394       .  A
C707        S711   1.806       .  S
C708        H712   1.084       .  S
S709        H714   1.407       .  S
S711        H715   1.407       .  S
C717        C718   1.400       .  A
C717        C722   1.399       .  A
C717        H727   1.084       .  S
C718        C723   1.475   1_655  S
C718        C719   1.410       .  A
C719        C720   1.398       .  A
C719        S724   1.804   1_565  S
C720        C721   1.405       .  A
C720        H725   1.084       .  S
C721        C722   1.416       .  A
C722        S726   1.802       .  S
C723        C728   1.399   1_455  A
C723        C732   1.395       .  A
S724        H740   1.405   1_645  S
S726        H737   1.407       .  S
C728        C729   1.396   1_656  A
C728        S733   1.807   1_556  S
C729        C730   1.418       .  A
C729        H734   1.078       .  S
C730        C731   1.439   1_554  A
C731        C732   1.406       .  A
C731        S735   1.812       .  S
C732        H736   1.083       .  S
S733        H738   1.407       .  S
S735        H739   1.407       .  S
C741        C742   1.400       .  A
C741        C746   1.403       .  A
C741        H751   1.083       .  S
C742        C747   1.474       .  S
C742        C743   1.408       .  A
C743        C744   1.395   1_545  A
C743        S748   1.805       .  S
C744        C745   1.407       .  A
C744        H749   1.084       .  S
C745        C746   1.419   1_565  A
C746        S750   1.809       .  S
C747        C752   1.408       .  A
C747        C756   1.401       .  A
S748        H764   1.404       .  S
S750        H761   1.407       .  S
C752        C753   1.398       .  A
C752        S757   1.809   1_545  S
C753        C754   1.404       .  A
C753        H758   1.083       .  S
C754        C755   1.415       .  A
C755        C756   1.401       .  A
C755        S759   1.802       .  S
C756        H760   1.084       .  S
S757        H762   1.407       .  S
S759        H763   1.407       .  S
C765        C766   1.403   1_565  A
C765        C770   1.397   1_565  A
C765        H775   1.084       .  S
C766        C771   1.479       .  S
C766        C767   1.410       .  A
C767        C768   1.398       .  A
C767        S772   1.803       .  S
C768        C769   1.406       .  A
C768        H773   1.083       .  S
C769        C770   1.415       .  A
C770        S774   1.803   1_545  S
C771        C776   1.405   1_545  A
C771        C780   1.402       .  A
S772        H788   1.406       .  S
S774        H785   1.408       .  S
C776        C777   1.401       .  A
C776        S781   1.806       .  S
C777        C778   1.409       .  A
C777        H782   1.082       .  S
C778        C779   1.419   1_565  A
C779        C780   1.401       .  A
C779        S783   1.810       .  S
C780        H784   1.083       .  S
S781        H786   1.407       .  S
S783        H787   1.407       .  S
C789        C790   1.401       .  A
C789        C794   1.401       .  A
C789        H799   1.084       .  S
C790        C795   1.475       .  S
C790        C791   1.409       .  A
C791        C792   1.395       .  A
C791        S796   1.806       .  S
C792        C793   1.406       .  A
C792        H797   1.084       .  S
C793        C794   1.419       .  A
C794        S798   1.801       .  S
C795        C800   1.401       .  A
C795        C804   1.393       .  A
S796        H812   1.406       .  S
S798        H809   1.408       .  S
C800        C801   1.401       .  A
C800        S805   1.805       .  S
C801        C802   1.417       .  A
C801        H806   1.078       .  S
C802        C803   1.437       .  A
C803        C804   1.400       .  A
C803        S807   1.810       .  S
C804        H808   1.083       .  S
S805        H810   1.407       .  S
S807        H811   1.407       .  S
C813        C814   1.399       .  A
C813        C818   1.399       .  A
C813        H823   1.084       .  S
C814        C819   1.474   1_566  S
C814        C815   1.411       .  A
C815        C816   1.395       .  A
C815        S820   1.805   1_556  S
C816        C817   1.404       .  A
C816        H821   1.084       .  S
C817        C818   1.419       .  A
C818        S822   1.802       .  S
C819        C824   1.407       .  A
C819        C828   1.400   1_545  A
S820        H836   1.405       .  S
S822        H833   1.408       .  S
C824        C825   1.397       .  A
C824        S829   1.808   1_554  S
C825        C826   1.406       .  A
C825        H830   1.082       .  S
C826        C827   1.418       .  A
C827        C828   1.401   1_545  A
C827        S831   1.801   1_545  S
C828        H832   1.084       .  S
S829        H834   1.407   1_556  S
S831        H835   1.407       .  S
C837        C838   1.400       .  A
C837        C842   1.401       .  A
C837        H847   1.084       .  S
C838        C843   1.473       .  S
C838        C839   1.410       .  A
C839        C840   1.395       .  A
C839        S844   1.806       .  S
C840        C841   1.406       .  A
C840        H845   1.084       .  S
C841        C842   1.418       .  A
C842        S846   1.801       .  S
C843        C848   1.405       .  A
C843        C852   1.398       .  A
S844        H860   1.404       .  S
S846        H857   1.407       .  S
C848        C849   1.400       .  A
C848        S853   1.807       .  S
C849        C850   1.408       .  A
C849        H854   1.082       .  S
C850        C851   1.420       .  A
C851        C852   1.401       .  A
C851        S855   1.809       .  S
C852        H856   1.083       .  S
S853        H858   1.407       .  S
S855        H859   1.407       .  S
C861        C862   1.402       .  A
C861        C866   1.405       .  A
C861        H871   1.083       .  S
C862        C867   1.478       .  S
C862        C863   1.410       .  A
C863        C864   1.396       .  A
C863        S868   1.804       .  S
C864        C865   1.405       .  A
C864        H869   1.084       .  S
C865        C866   1.415       .  A
C866        S870   1.806       .  S
C867        C872   1.408       .  A
C867        C876   1.402       .  A
S868        H884   1.406       .  S
S870        H881   1.407       .  S
C872        C873   1.397       .  A
C872        S877   1.810       .  S
C873        C874   1.406       .  A
C873        H878   1.082       .  S
C874        C875   1.417       .  A
C875        C876   1.404       .  A
C875        S879   1.801       .  S
C876        H880   1.084       .  S
S877        H882   1.406       .  S
S879        H883   1.407       .  S
C885        C886   1.393       .  A
C885        C890   1.401       .  A
C885        H895   1.083       .  S
C886        C891   1.478       .  S
C886        C887   1.404   1_556  A
C887        C888   1.397       .  A
C887        S892   1.805       .  S
C888        C889   1.423       .  A
C888        H893   1.079       .  S
C889        C890   1.433   1_554  A
C890        S894   1.799       .  S
C891        C896   1.408       .  A
C891        C900   1.400   1_556  A
S892        H908   1.406   1_554  S
S894        H905   1.407   1_565  S
C896        C897   1.402       .  A
C896        S901   1.808       .  S
C897        C898   1.407       .  A
C897        H902   1.082       .  S
C898        C899   1.417       .  A
C899        C900   1.397   1_556  A
C899        S903   1.802   1_556  S
C900        H904   1.084       .  S
S901        H906   1.407       .  S
S903        H907   1.408       .  S
C909        C910   1.401       .  A
C909        C914   1.403       .  A
C909        H919   1.083       .  S
C910        C915   1.479       .  S
C910        C911   1.410       .  A
C911        C912   1.398       .  A
C911        S916   1.804       .  S
C912        C913   1.406       .  A
C912        H917   1.084       .  S
C913        C914   1.416       .  A
C914        S918   1.808       .  S
C915        C920   1.408       .  A
C915        C924   1.402       .  A
S916        H932   1.406       .  S
S918        H929   1.407       .  S
C920        C921   1.397       .  A
C920        S925   1.809       .  S
C921        C922   1.406       .  A
C921        H926   1.082       .  S
C922        C923   1.419       .  A
C923        C924   1.408       .  A
C923        S927   1.808       .  S
C924        H928   1.083       .  S
S925        H930   1.407       .  S
S927        H931   1.407       .  S
C933        C934   1.403       .  A
C933        C938   1.405       .  A
C933        H943   1.083       .  S
C934        C939   1.481       .  S
C934        C935   1.413       .  A
C935        C936   1.394       .  A
C935        S940   1.806       .  S
C936        C937   1.404       .  A
C936        H941   1.084       .  S
C937        C938   1.415       .  A
C938        S942   1.808       .  S
C939        C944   1.407       .  A
C939        C948   1.400       .  A
S940        H956   1.406       .  S
S942        H953   1.407       .  S
C944        C945   1.403       .  A
C944        S949   1.807       .  S
C945        C946   1.409       .  A
C945        H950   1.082       .  S
C946        C947   1.420       .  A
C947        C948   1.401       .  A
C947        S951   1.809       .  S
C948        H952   1.083       .  S
S949        H954   1.406       .  S
S951        H955   1.407       .  S
C957        C958   1.402       .  A
C957        C962   1.406       .  A
C957        H967   1.083       .  S
C958        C963   1.479       .  S
C958        C959   1.411       .  A
C959        C960   1.395       .  A
C959        S964   1.805       .  S
C960        C961   1.405       .  A
C960        H965   1.084       .  S
C961        C962   1.418       .  A
C962        S966   1.808       .  S
C963        C968   1.403       .  A
C963        C972   1.397       .  A
S964        H980   1.405       .  S
S966        H977   1.407       .  S
C968        C969   1.399       .  A
C968        S973   1.807       .  S
C969        C970   1.416       .  A
C969        H974   1.074       .  S
C970        C971   1.434       .  A
C971        C972   1.405       .  A
C971        S975   1.811       .  S
C972        H976   1.082       .  S
S973        H978   1.407       .  S
S975        H979   1.406       .  S
C981        C982   1.399       .  A
C981        C986   1.397   1_554  A
C981        H991   1.084   1_554  S
C982        C987   1.479       .  S
C982        C983   1.413       .  A
C983        C984   1.401       .  A
C983        S988   1.804       .  S
C984        C985   1.405   1_554  A
C984        H989   1.084       .  S
C985        C986   1.416       .  A
C986        S990   1.804       .  S
C987        C992   1.408       .  A
C987        C996   1.400       .  A
S988       H1004   1.405       .  S
S990       H1001   1.408       .  S
C992        C993   1.402       .  A
C992        S997   1.807       .  S
C993        C994   1.407       .  A
C993        H998   1.082       .  S
C994        C995   1.418       .  A
C995        C996   1.400       .  A
C995        S999   1.802       .  S
C996       H1000   1.084       .  S
S997       H1002   1.407       .  S
S999       H1003   1.407       .  S
C1005      C1006   1.401       .  A
C1005      C1010   1.393       .  A
C1005      H1015   1.084       .  S
C1006      C1011   1.477       .  S
C1006      C1007   1.412       .  A
C1007      C1008   1.401       .  A
C1007      S1012   1.804       .  S
C1008      C1009   1.405       .  A
C1008      H1013   1.084       .  S
C1009      C1010   1.413       .  A
C1010      S1014   1.805       .  S
C1011      C1016   1.411       .  A
C1011      C1020   1.402       .  A
S1012      H1028   1.406       .  S
S1014      H1025   1.407   1_655  S
C1016      C1017   1.398       .  A
C1016      S1021   1.810       .  S
C1017      C1018   1.403       .  A
C1017      H1022   1.083       .  S
C1018      C1019   1.414       .  A
C1019      C1020   1.402       .  A
C1019      S1023   1.808       .  S
C1020      H1024   1.083       .  S
S1021      H1026   1.407       .  S
S1023      H1027   1.407       .  S
C1029      C1030   1.402       .  A
C1029      C1034   1.399       .  A
C1029      H1039   1.083       .  S
C1030      C1035   1.476       .  S
C1030      C1031   1.410       .  A
C1031      C1032   1.398       .  A
C1031      S1036   1.804       .  S
C1032      C1033   1.405       .  A
C1032      H1037   1.084       .  S
C1033      C1034   1.414       .  A
C1034      S1038   1.810       .  S
C1035      C1040   1.410       .  A
C1035      C1044   1.401       .  A
S1036      H1052   1.406       .  S
S1038      H1049   1.407       .  S
C1040      C1041   1.400       .  A
C1040      S1045   1.808       .  S
C1041      C1042   1.405       .  A
C1041      H1046   1.083       .  S
C1042      C1043   1.414       .  A
C1043      C1044   1.397       .  A
C1043      S1047   1.802       .  S
C1044      H1048   1.084       .  S
S1045      H1050   1.407       .  S
S1047      H1051   1.407       .  S
C1053      C1054   1.402       .  A
C1053      C1058   1.397       .  A
C1053      H1063   1.084       .  S
C1054      C1059   1.477       .  S
C1054      C1055   1.412       .  A
C1055      C1056   1.399       .  A
C1055      S1060   1.805       .  S
C1056      C1057   1.405       .  A
C1056      H1061   1.084       .  S
C1057      C1058   1.414       .  A
C1058      S1062   1.803   1_455  S
C1059      C1064   1.400       .  A
C1059      C1068   1.394       .  A
S1060      H1076   1.405       .  S
S1062      H1073   1.407       .  S
C1064      C1065   1.397       .  A
C1064      S1069   1.808       .  S
C1065      C1066   1.421       .  A
C1065      H1070   1.077       .  S
C1066      C1067   1.441       .  A
C1067      C1068   1.403       .  A
C1067      S1071   1.813       .  S
C1068      H1072   1.083       .  S
S1069      H1074   1.407   1_554  S
S1071      H1075   1.407       .  S
C1077      C1078   1.402       .  A
C1077      C1082   1.400       .  A
C1077      H1087   1.083       .  S
C1078      C1083   1.480       .  S
C1078      C1079   1.412       .  A
C1079      C1080   1.399       .  A
C1079      S1084   1.803       .  S
C1080      C1081   1.404       .  A
C1080      H1085   1.084       .  S
C1081      C1082   1.414       .  A
C1082      S1086   1.809       .  S
C1083      C1088   1.408       .  A
C1083      C1092   1.401       .  A
S1084      H1100   1.407       .  S
S1086      H1097   1.407       .  S
C1088      C1089   1.404       .  A
C1088      S1093   1.805       .  S
C1089      C1090   1.406       .  A
C1089      H1094   1.083       .  S
C1090      C1091   1.416       .  A
C1091      C1092   1.398       .  A
C1091      S1095   1.810       .  S
C1092      H1096   1.083       .  S
S1093      H1098   1.407       .  S
S1095      H1099   1.407       .  S
C1101      C1102   1.401       .  A
C1101      C1106   1.401       .  A
C1101      H1111   1.084       .  S
C1102      C1107   1.472       .  S
C1102      C1103   1.409       .  A
C1103      C1104   1.393       .  A
C1103      S1108   1.804       .  S
C1104      C1105   1.403       .  A
C1104      H1109   1.084       .  S
C1105      C1106   1.415       .  A
C1106      S1110   1.799       .  S
C1107      C1112   1.406       .  A
C1107      C1116   1.399       .  A
S1108      H1124   1.404       .  S
S1110      H1121   1.407       .  S
C1112      C1113   1.398       .  A
C1112      S1117   1.808       .  S
C1113      C1114   1.405       .  A
C1113      H1118   1.082       .  S
C1114      C1115   1.417       .  A
C1115      C1116   1.403       .  A
C1115      S1119   1.808       .  S
C1116      H1120   1.083       .  S
S1117      H1122   1.407       .  S
S1119      H1123   1.407       .  S
C1125      C1126   1.401       .  A
C1125      C1130   1.400       .  A
C1125      H1135   1.084       .  S
C1126      C1131   1.477       .  S
C1126      C1127   1.409       .  A
C1127      C1128   1.395       .  A
C1127      S1132   1.799   1_556  S
C1128      C1129   1.405       .  A
C1128      H1133   1.084       .  S
C1129      C1130   1.416       .  A
C1130      S1134   1.802       .  S
C1131      C1136   1.399   1_556  A
C1131      C1140   1.395       .  A
S1132      H1148   1.405       .  S
S1134      H1145   1.407       .  S
C1136      C1137   1.396       .  A
C1136      S1141   1.806       .  S
C1137      C1138   1.421       .  A
C1137      H1142   1.074       .  S
C1138      C1139   1.437   1_554  A
C1139      C1140   1.405       .  A
C1139      S1143   1.809       .  S
C1140      H1144   1.082       .  S
S1141      H1146   1.407       .  S
S1143      H1147   1.406       .  S
C1149      C1150   1.403       .  A
C1149      C1154   1.396       .  A
C1149      H1159   1.084       .  S
C1150      C1155   1.481       .  S
C1150      C1151   1.413       .  A
C1151      C1152   1.401       .  A
C1151      S1156   1.804       .  S
C1152      C1153   1.404       .  A
C1152      H1157   1.084       .  S
C1153      C1154   1.413       .  A
C1154      S1158   1.804       .  S
C1155      C1160   1.410       .  A
C1155      C1164   1.402       .  A
S1156      H1172   1.406       .  S
S1158      H1169   1.407   1_655  S
C1160      C1161   1.400   1_554  A
C1160      S1165   1.809       .  S
C1161      C1162   1.406       .  A
C1161      H1166   1.082       .  S
C1162      C1163   1.417       .  A
C1163      C1164   1.401   1_556  A
C1163      S1167   1.802       .  S
C1164      H1168   1.084       .  S
S1165      H1170   1.406       .  S
S1167      H1171   1.408       .  S
