geometry optimzed in LAMMPS
_audit_creation_date              2020-12-01 
_audit_creation_method            'lammps2cif' 
_symmetry_space_group_name_H-M    'P1' 
_symmetry_Int_Tables_number       1 
_symmetry_cell_setting            triclinic 
loop_ 
_symmetry_equiv_pos_as_xyz 
  x,y,z 
_cell_length_a                    36.98424176 
_cell_length_b                    36.97873062690416 
_cell_length_c                    51.23011354144825 
_cell_angle_alpha                 90.1334183880577 
_cell_angle_beta                  89.33988374931678 
_cell_angle_gamma                 120.28046011027905 
loop_ 
_atom_site_label 
_atom_site_type_symbol 
_atom_site_fract_x 
_atom_site_fract_y 
_atom_site_fract_z 
_atom_site_charge 
Zn1        Zn  0.53478832  0.02737548  0.01647751     1.49700
Zn2        Zn  0.57936355  0.12256782  0.02355331     1.49400
Zn3        Zn  0.60496113  0.08999113  0.47882283     1.49100
Zn4        Zn  0.52095810  0.08275539  0.47197877     1.49500
O5          O  0.55838011  0.07973004  0.99799688    -1.84000
O6          O  0.51321946  0.03298049  0.05224198    -0.74600
O7          O  0.64202998  0.15538864  0.02304183    -0.74500
O8          O  0.63620710  0.07102751  0.50014093    -0.74000
O9          O  0.55550244  0.10094033  0.05898252    -0.74700
O10         O  0.58817622  0.02263872  0.02747091    -0.74300
O11         O  0.64432149  0.15092067  0.47875583    -0.74800
O12         O  0.54629326  0.08791960  0.43585521    -0.74200
O13         O  0.56176791  0.16285080  0.01452865    -0.75000
O14         O  0.59621816  0.07203065  0.44112189    -0.74400
O15         O  0.51592967  0.13434225  0.47816187    -0.74800
O16         O  0.46547975  0.02899675  0.47257788    -0.74800
O17         O  0.48019911  0.98602940  0.99474916    -0.74500
C18         C  0.52746540  0.06495589  0.06704076     0.77200
C19         C  0.66387175  0.16962242  0.00219859     0.77700
C20         C  0.62700152  0.04618120  0.02073110     0.76700
C21         C  0.57364377  0.08004798  0.42637834     0.77100
C22         C  0.53133943  0.16216959  0.49592485     0.78200
C23         C  0.45357235  0.99159632  0.47994453     0.77300
Zn24       Zn  0.56360588  0.12772621  0.21913566     1.49700
Zn25       Zn  0.49735494  0.03505891  0.23371044     1.49400
Zn26       Zn  0.59185106  0.07775719  0.25750698     1.49100
Zn27       Zn  0.53842344  0.11420310  0.27332757     1.49500
O28         O  0.54687829  0.08546622  0.24544379    -1.84000
O29         O  0.54388634  0.10315243  0.18429172    -0.74600
O30         O  0.51573742  0.98853349  0.23227629    -0.74500
O31         O  0.64587335  0.13086350  0.24738322    -0.74000
O32         O  0.48983355  0.04044472  0.19438783    -0.74700
O33         O  0.62550998  0.16396254  0.22008752    -0.74300
O34         O  0.58467555  0.02560043  0.23982301    -0.74800
O35         O  0.55866313  0.10670903  0.30660784    -0.74200
O36         O  0.44456773  0.03320715  0.25454143    -0.75000
O37         O  0.59214206  0.07262141  0.29785422    -0.74400
O38         O  0.47895105  0.09177071  0.27776178    -0.74800
O39         O  0.56139063  0.17486723  0.26736879    -0.74800
O40         O  0.54064151  0.16565798  0.22675947    -0.74500
C41         C  0.51269669  0.06838062  0.17755329     0.77200
C42         C  0.55254276  0.99221036  0.23176394     0.77700
C43         C  0.65372592  0.16253447  0.23326985     0.76700
C44         C  0.57868967  0.08935610  0.31422986     0.77100
C45         C  0.44483177  0.06083934  0.27032238     0.78200
C46         C  0.54893380  0.18635627  0.24785842     0.77300
Zn47       Zn  0.50080577  0.42701763  0.48726205     1.49700
Zn48       Zn  0.59345718  0.48102981  0.01537494     1.49400
Zn49       Zn  0.54010870  0.38935598  0.02785305     1.49100
Zn50       Zn  0.56871421  0.40303570  0.47550451     1.49500
O51         O  0.54831720  0.42496612  0.50111944    -1.84000
O52         O  0.52139540  0.49253971  0.48466690    -0.74600
O53         O  0.58352447  0.48320126  0.05424517    -0.74500
O54         O  0.48096257  0.35117245  0.02719254    -0.74000
O55         O  0.59003317  0.52693845  0.99701959    -0.74700
O56         O  0.44557406  0.37767921  0.50735971    -0.74300
O57         O  0.55077239  0.41499163  0.06270380    -0.74800
O58         O  0.54154602  0.34072330  0.47841937    -0.74200
O59         O  0.64980635  0.48561531  0.00978207    -0.75000
O60         O  0.56262342  0.35059480  0.02259228    -0.74400
O61         O  0.62929487  0.42639161  0.48094211    -0.74800
O62         O  0.55790471  0.41754786  0.44108569    -0.74800
O63         O  0.49672330  0.41414330  0.44794523    -0.74500
C64         C  0.55864574  0.52531585  0.48484514     0.77200
C65         C  0.56601806  0.45258175  0.07021431     0.77700
C66         C  0.44741416  0.34790728  0.01893204     0.76700
C67         C  0.55560912  0.33059317  0.00125752     0.77100
C68         C  0.65564393  0.45492027  0.49576462     0.78200
C69         C  0.52605467  0.41809983  0.43263951     0.77300
Zn70       Zn  0.57881732  0.42104358  0.27617063     1.49700
Zn71       Zn  0.60063715  0.47936787  0.23196386     1.49400
Zn72       Zn  0.51785206  0.39915908  0.22820851     1.49100
Zn73       Zn  0.52846269  0.46766025  0.27041534     1.49500
O74         O  0.55356055  0.44036426  0.25196744    -1.84000
O75         O  0.64181617  0.44973441  0.27156897    -0.74600
O76         O  0.58594289  0.48665311  0.19598050    -0.74500
O77         O  0.51892191  0.34571949  0.23401869    -0.74000
O78         O  0.64302660  0.46151308  0.22926713    -0.74700
O79         O  0.55888329  0.36128550  0.26915590    -0.74300
O80         O  0.53610894  0.42028234  0.19139609    -0.74800
O81         O  0.46965205  0.44965490  0.25071285    -0.74200
O82         O  0.63069752  0.53039139  0.25272764    -0.75000
O83         O  0.46056716  0.39121974  0.23191273    -0.74400
O84         O  0.58242671  0.52720205  0.28062114    -0.74800
O85         O  0.51158976  0.44207854  0.30656913    -0.74800
O86         O  0.56173668  0.42626397  0.31225484    -0.74500
C87         C  0.66058390  0.45789870  0.24947426     0.77200
C88         C  0.56111701  0.45630236  0.18163120     0.77700
C89         C  0.53707908  0.33591713  0.25131088     0.76700
C90         C  0.44628565  0.41508344  0.23811783     0.77100
C91         C  0.62109828  0.54341193  0.27310809     0.78200
C92         C  0.53264164  0.43182863  0.32121697     0.77300
Zn93       Zn  0.85831867  0.38869625  0.27731556     1.49700
Zn94       Zn  0.94149225  0.42922126  0.23940000     1.49400
Zn95       Zn  0.85509862  0.41395400  0.22328707     1.49100
Zn96       Zn  0.90216325  0.48102354  0.26695286     1.49500
O97         O  0.89196615  0.42926065  0.25178305    -1.84000
O98         O  0.88550385  0.35679305  0.28512913    -0.74600
O99         O  0.93441206  0.41274853  0.20041342    -0.74500
O100        O  0.81703074  0.35158052  0.22236128    -0.74000
O101        O  0.94475790  0.38129725  0.26193219    -0.74700
O102        O  0.80239682  0.34403419  0.26450072    -0.74300
O103        O  0.88607784  0.42907796  0.18992772    -0.74800
O104        O  0.85066957  0.48561815  0.25999875    -0.74200
O105        O  0.98730160  0.49380615  0.23581742    -0.75000
O106        O  0.81953036  0.43961014  0.22800850    -0.74400
O107        O  0.95402592  0.52734372  0.24919254    -0.74800
O108        O  0.90721069  0.47938497  0.30664739    -0.74800
O109        O  0.85588209  0.41367775  0.31132837    -0.74500
C110        C  0.91760172  0.35491713  0.27854798     0.77200
C111        C  0.91360552  0.41973913  0.18338848     0.77700
C112        C  0.79530200  0.32906410  0.24149524     0.76700
C113        C  0.82037645  0.46615741  0.24423241     0.77100
C114        C  0.98484148  0.52742128  0.23758718     0.78200
C115        C  0.88170860  0.44889209  0.32123181     0.77300
Zn116      Zn  0.94935259  0.46709743  0.02185246     1.49700
Zn117      Zn  0.89271182  0.39444914  0.47855781     1.49400
Zn118      Zn  0.85323088  0.41683477  0.02803937     1.49100
Zn119      Zn  0.88673098  0.47096080  0.48620118     1.49500
O120        O  0.89624738  0.43225842  0.50473844    -1.84000
O121        O  0.99253471  0.45397639  0.00079978    -0.74600
O122        O  0.84457037  0.33679287  0.48609874    -0.74500
O123        O  0.87437730  0.42015413  0.06442152    -0.74000
O124        O  0.94669183  0.39536536  0.47757591    -0.74700
O125        O  0.94138317  0.44047624  0.05752797    -0.74300
O126        O  0.81603036  0.35666225  0.02085738    -0.74800
O127        O  0.82585883  0.44923991  0.48535268    -0.74200
O128        O  0.88523881  0.41298676  0.44287525    -0.75000
O129        O  0.81851294  0.44474491  0.02392500    -0.74400
O130        O  0.90618788  0.48026275  0.44847892    -0.74800
O131        O  0.90504128  0.52042107  0.50865090    -0.74800
O132        O  0.95045370  0.52386005  0.03278467    -0.74500
C133        C  0.98346826  0.41932617  0.48607406     0.77200
C134        C  0.81657476  0.32356421  0.50401525     0.77700
C135        C  0.90946015  0.42644856  0.07265691     0.76700
C136        C  0.80925183  0.45469624  0.00222406     0.77100
C137        C  0.89536564  0.44887922  0.43357080     0.78200
C138        C  0.92909150  0.53991085  0.02387658     0.77300
Zn139      Zn  0.55574630  0.71912015  0.14598635     1.49700
Zn140      Zn  0.51518174  0.74388650  0.19106652     1.49400
Zn141      Zn  0.61051101  0.80115216  0.17899932     1.49100
Zn142      Zn  0.54068384  0.79289729  0.14282981     1.49500
O143        O  0.55703160  0.76325768  0.16507907    -1.84000
O144        O  0.50441179  0.66351460  0.15497251    -0.74600
O145        O  0.54151407  0.75205132  0.22571401    -0.74500
O146        O  0.65290799  0.78767707  0.15771763    -0.74000
O147        O  0.47689249  0.68317531  0.18674364    -0.74700
O148        O  0.60895964  0.71914798  0.15140011    -0.74300
O149        O  0.60979731  0.78302543  0.21602933    -0.74800
O150        O  0.55802177  0.84771879  0.15889029    -0.74200
O151        O  0.47953052  0.77015877  0.18668430    -0.75000
O152        O  0.60979775  0.85845663  0.18499653    -0.74400
O153        O  0.47886469  0.76678946  0.14366602    -0.74800
O154        O  0.55985378  0.79406019  0.10639591    -0.74800
O155        O  0.55605930  0.73209933  0.10814873    -0.74500
C156        C  0.47559826  0.65504190  0.17185661     0.77200
C157        C  0.57932719  0.76573359  0.23224812     0.77700
C158        C  0.64586700  0.75085309  0.15089701     0.76700
C159        C  0.58283440  0.86836460  0.17712376     0.77100
C160        C  0.46266804  0.76971455  0.16502738     0.78200
C161        C  0.56008128  0.76337805  0.09525634     0.77300
Zn162      Zn  0.55524975  0.70736136  0.39129716     1.49700
Zn163      Zn  0.51399333  0.72767154  0.43545176     1.49400
Zn164      Zn  0.61214757  0.77434837  0.43297865     1.49100
Zn165      Zn  0.56045603  0.79184708  0.38977546     1.49500
O166        O  0.56163861  0.75241289  0.41270517    -1.84000
O167        O  0.49509590  0.66418508  0.38738410    -0.74600
O168        O  0.53168615  0.73686255  0.47222210    -0.74500
O169        O  0.61875183  0.72057037  0.44085745    -0.74000
O170        O  0.47773680  0.66594180  0.42873297    -0.74700
O171        O  0.57603910  0.67621662  0.41121369    -0.74300
O172        O  0.59917633  0.78516106  0.46958728    -0.74800
O173        O  0.60963557  0.84746283  0.39635329    -0.74200
O174        O  0.47913449  0.75410242  0.42971005    -0.75000
O175        O  0.65558974  0.83580090  0.41698440    -0.74400
O176        O  0.50739281  0.79392709  0.39435243    -0.74800
O177        O  0.56822239  0.77920731  0.35278677    -0.74800
O178        O  0.57970793  0.72581205  0.35554236    -0.74500
C179        C  0.47113596  0.64698029  0.40700483     0.77200
C180        C  0.56586121  0.76300220  0.48294655     0.77700
C181        C  0.59762777  0.68301723  0.43166271     0.91100
C182        C  0.64633971  0.86089582  0.40492353     0.77100
C183        C  0.47903056  0.77812839  0.41202336     0.78200
C184        C  0.57857048  0.75436700  0.34237869     0.77300
Zn185      Zn  0.16298680  0.36369047  0.40781497     1.49700
Zn186      Zn  0.25669098  0.40609206  0.43165092     1.49400
Zn187      Zn  0.23230108  0.45313206  0.38961627     1.49100
Zn188      Zn  0.20568497  0.44718032  0.44475646     1.49500
O189        O  0.21302052  0.41505155  0.41832710    -1.84000
O190        O  0.18182567  0.31804289  0.40497593    -0.74600
O191        O  0.31219637  0.45685651  0.42130856    -0.74500
O192        O  0.21110104  0.42375048  0.35647161    -0.74000
O193        O  0.24980383  0.35317615  0.41526714    -0.74700
O194        O  0.15056049  0.36863194  0.36908219    -0.74300
O195        O  0.29422397  0.48657926  0.39027311    -0.74800
O196        O  0.21897140  0.50466421  0.43411347    -0.74200
O197        O  0.25489534  0.40292041  0.47164453    -0.75000
O198        O  0.21166252  0.49407844  0.39166023    -0.74400
O199        O  0.23197034  0.44713084  0.47813809    -0.74800
O200        O  0.14622782  0.41982212  0.45265312    -0.74800
O201        O  0.11201834  0.35924435  0.43135258    -0.74500
C202        C  0.21818407  0.32097052  0.40569631     0.77200
C203        C  0.32174582  0.48617301  0.40476102     0.77700
C204        C  0.17527638  0.39284778  0.35119964     0.76700
C205        C  0.21191368  0.51439915  0.41173683     0.77100
C206        C  0.24636672  0.42488669  0.48702549     0.78200
C207        C  0.11246278  0.38677117  0.44721386     0.77300
Zn208      Zn  0.23320547  0.45129570  0.19647101     1.49700
Zn209      Zn  0.17980144  0.41023458  0.14588370     1.49400
Zn210      Zn  0.26502087  0.41808062  0.15335180     1.49100
Zn211      Zn  0.19113501  0.35479927  0.19081654     1.49500
O212        O  0.21479126  0.40694015  0.17169921    -1.84000
O213        O  0.21280593  0.48955867  0.18605204    -0.74600
O214        O  0.20551159  0.41638038  0.11015483    -0.74500
O215        O  0.30613619  0.47893290  0.15495123    -0.74000
O216        O  0.17246251  0.46031821  0.15165192    -0.74700
O217        O  0.29591919  0.48667655  0.19670096    -0.74300
O218        O  0.25739475  0.40321223  0.11498222    -0.74800
O219        O  0.24502880  0.35102912  0.20183202    -0.74200
O220        O  0.12550299  0.35629341  0.14594539    -0.75000
O221        O  0.29433973  0.39580058  0.17414774    -0.74400
O222        O  0.13611021  0.31175127  0.16972350    -0.74800
O223        O  0.16947119  0.36088785  0.22642587    -0.74800
O224        O  0.20953535  0.42938640  0.23194309    -0.74500
C225        C  0.18930996  0.48984588  0.16822419     0.77200
C226        C  0.23420771  0.41077805  0.10048005     0.77700
C227        C  0.31895739  0.49890741  0.17625432     0.76700
C228        C  0.28371573  0.37263085  0.19432216     0.77100
C229        C  0.11302804  0.31938315  0.15439341     0.78200
C230        C  0.18277512  0.39334589  0.24070777     0.77300
Zn231      Zn  0.16940274  0.77112499  0.17637039     1.49700
Zn232      Zn  0.17091944  0.70277890  0.14016331     1.49400
Zn233      Zn  0.24580783  0.79232069  0.13787153     1.49100
Zn234      Zn  0.22489704  0.73133358  0.18614997     1.49500
O235        O  0.20363600  0.75174950  0.16028211    -1.84000
O236        O  0.11102310  0.71549741  0.18409430    -0.74600
O237        O  0.16797558  0.71645791  0.10304901    -0.74500
O238        O  0.24816331  0.84724108  0.14228514    -0.74000
O239        O  0.11656197  0.67044235  0.15808792    -0.74700
O240        O  0.18242060  0.82639788  0.15495814    -0.74300
O241        O  0.22832367  0.77681148  0.10060760    -0.74800
O242        O  0.28449857  0.75283351  0.17841040    -0.74200
O243        O  0.19188423  0.66258391  0.14223781    -0.75000
O244        O  0.30134345  0.79539501  0.14414171    -0.74400
O245        O  0.19757098  0.66852424  0.18503372    -0.74800
O246        O  0.22051959  0.75210816  0.22115881    -0.74800
O247        O  0.18971526  0.78946758  0.21326272    -0.74500
C248        C  0.09798851  0.67761331  0.17655411     0.77200
C249        C  0.19592843  0.74720842  0.08990267     0.77700
C250        C  0.21802971  0.85447866  0.14494585     0.76700
C251        C  0.31091120  0.77688844  0.16138521     0.77100
C252        C  0.19215591  0.64719961  0.16438753     0.78200
C253        C  0.20733379  0.77623845  0.22871995     0.77300
Zn254      Zn  0.20202503  0.80145109  0.42764028     1.49700
Zn255      Zn  0.26917030  0.80224995  0.38909123     1.49400
Zn256      Zn  0.24081345  0.74382984  0.43318157     1.49100
Zn257      Zn  0.17907731  0.72767031  0.38656736     1.49500
O258        O  0.22015810  0.76789020  0.40927809    -1.84000
O259        O  0.25829184  0.85958250  0.43564184    -0.74600
O260        O  0.30660409  0.77807104  0.38823086    -0.74500
O261        O  0.22136340  0.74563658  0.46894526    -0.74000
O262        O  0.30378690  0.85372023  0.40969928    -0.74700
O263        O  0.18514116  0.77834143  0.46439028    -0.74300
O264        O  0.30356659  0.77106122  0.43108585    -0.74800
O265        O  0.17730506  0.67149069  0.38958304    -0.74200
O266        O  0.25491545  0.80974125  0.35244438    -0.75000
O267        O  0.21896169  0.68474411  0.42372435    -0.74400
O268        O  0.19438312  0.74979864  0.34984284    -0.74800
O269        O  0.12370831  0.72477239  0.39358778    -0.74800
O270        O  0.14530453  0.78936780  0.40872627    -0.74500
C271        C  0.29633558  0.87126411  0.42869670     0.77200
C272        C  0.32312911  0.77642607  0.40950852     0.77700
C273        C  0.19838773  0.75903821  0.47839448     0.76700
C274        C  0.19558999  0.66031937  0.40602083     0.77100
C275        C  0.22366898  0.78312186  0.33928371     0.78200
C276        C  0.11660504  0.75455729  0.39856732     0.77300
Zn277      Zn  0.18190095  0.08485616  0.34939811     1.49700
Zn278      Zn  0.27725422  0.13682996  0.34259405     1.49400
Zn279      Zn  0.22397413  0.06573410  0.30076152     1.49100
Zn280      Zn  0.21470925  0.14349170  0.30383078     1.49500
O281        O  0.22583441  0.10684329  0.32403259    -1.84000
O282        O  0.20263698  0.08403550  0.38499603    -0.74600
O283        O  0.32096323  0.12521404  0.32156386    -0.74500
O284        O  0.17153946  0.00982731  0.30717788    -0.74000
O285        O  0.27073415  0.11008869  0.37812916    -0.74700
O286        O  0.14353559  0.02595819  0.34073715    -0.74300
O287        O  0.27599266  0.06302882  0.30408142    -0.74800
O288        O  0.23271635  0.14682034  0.26608013    -0.74200
O289        O  0.27810822  0.19323929  0.35327194    -0.75000
O290        O  0.22809016  0.08455761  0.26364866    -0.74400
O291        O  0.23885029  0.19767250  0.32237579    -0.74800
O292        O  0.15372101  0.12543228  0.30599323    -0.74800
O293        O  0.14831925  0.11391425  0.34853684    -0.74500
C294        C  0.23854516  0.09279516  0.39304505     0.77200
C295        C  0.31330939  0.09134533  0.30932683     0.77700
C296        C  0.14268949  0.99978375  0.32431881     0.76700
C297        C  0.23446717  0.11836435  0.25297329     0.77100
C298        C  0.25733279  0.20976440  0.34412562     0.78200
C299        C  0.13554048  0.12263043  0.32778579     0.77300
Zn300      Zn  0.27647537  0.10284884  0.08958768     1.49700
Zn301      Zn  0.22263753  0.12373124  0.04998782     1.49400
Zn302      Zn  0.20453647  0.03401113  0.05431474     1.49100
Zn303      Zn  0.18179375  0.06705800  0.09991305     1.49500
O304        O  0.22337302  0.08445285  0.07345472    -1.84000
O305        O  0.31962818  0.15772235  0.06798367    -0.74600
O306        O  0.22514047  0.10601424  0.01309344    -0.74500
O307        O  0.22259639  0.00037534  0.07430707    -0.74000
O308        O  0.27582039  0.17834487  0.05366475    -0.74700
O309        O  0.27783847  0.04668610  0.09700101    -0.74300
O310        O  0.22223756  0.04457173  0.01665687    -0.74800
O311        O  0.14182541  0.00539478  0.09904351    -0.74200
O312        O  0.17041161  0.12793533  0.05614572    -0.75000
O313        O  0.14235068  0.99866803  0.05625281    -0.74400
O314        O  0.14698001  0.09173872  0.09323160    -0.74800
O315        O  0.20596968  0.08634813  0.13467410    -0.74800
O316        O  0.27461801  0.12183348  0.12684228    -0.74500
C317        C  0.31295793  0.18555508  0.05726058     0.77200
C318        C  0.22679695  0.07534738  0.00297539     0.77700
C319        C  0.24994116  0.00851510  0.09166262     0.76700
C320        C  0.12458207  0.98526867  0.07836206     0.77100
C321        C  0.14393875  0.11310356  0.07498868     0.78200
C322        C  0.24324452  0.10981462  0.14227296     0.77300
Zn323      Zn  0.90866986  0.79433205  0.35846728     1.49700
Zn324      Zn  0.86399810  0.69826205  0.35203141     1.49400
Zn325      Zn  0.84363150  0.75173550  0.31286439     1.49100
Zn326      Zn  0.93043591  0.76119685  0.31279426     1.49500
O327        O  0.88404877  0.75017294  0.33421342    -1.84000
O328        O  0.89755627  0.77169645  0.39454721    -0.74600
O329        O  0.80677790  0.65490977  0.33277762    -0.74500
O330        O  0.84244190  0.80546293  0.31970733    -0.74000
O331        O  0.84737995  0.70539905  0.38843742    -0.74700
O332        O  0.88351735  0.83011237  0.35443253    -0.74300
O333        O  0.78784199  0.70046466  0.31944104    -0.74800
O334        O  0.91258039  0.73684399  0.27771944    -0.74200
O335        O  0.91971381  0.69554633  0.36016616    -0.75000
O336        O  0.85716660  0.74547401  0.27539330    -0.74400
O337        O  0.96476067  0.74399762  0.33247940    -0.74800
O338        O  0.96931980  0.82222105  0.30873452    -0.74800
O339        O  0.97016781  0.83163458  0.35128736    -0.74500
C340        C  0.86931242  0.73633157  0.40332387     0.77200
C341        C  0.77908606  0.66279731  0.32324020     0.77700
C342        C  0.85949333  0.83250897  0.33786478     0.76700
C343        C  0.88320910  0.73659715  0.26488809     0.77100
C344        C  0.95766692  0.72044048  0.35216978     0.78200
C345        C  0.98770180  0.84316709  0.32889581     0.77300
Zn346      Zn  0.91044670  0.73879453  0.06782285     1.49700
Zn347      Zn  0.83219430  0.68652370  0.10401988     1.49400
Zn348      Zn  0.88336841  0.78290896  0.10925944     1.49100
Zn349      Zn  0.83139915  0.74690737  0.06243522     1.49500
O350        O  0.86517887  0.73778050  0.08597015    -1.84000
O351        O  0.91425256  0.68835616  0.07763859    -0.74600
O352        O  0.85370144  0.69398321  0.14056589    -0.74500
O353        O  0.94148812  0.82583987  0.09985577    -0.74000
O354        O  0.84606560  0.64362527  0.08495747    -0.74700
O355        O  0.96358429  0.79424639  0.07256490    -0.74300
O356        O  0.88193830  0.76300076  0.14529961    -0.74800
O357        O  0.84893846  0.80745535  0.06239842    -0.74200
O358        O  0.77462589  0.68454905  0.11049382    -0.75000
O359        O  0.84996654  0.81132458  0.10544548    -0.74400
O360        O  0.77422986  0.72321548  0.07747485    -0.74800
O361        O  0.83579155  0.72880557  0.02627779    -0.74800
O362        O  0.89760364  0.73270450  0.02975572    -0.74500
C363        C  0.88302046  0.65110093  0.07801200     0.77200
C364        C  0.87080444  0.72690998  0.15451076     0.77700
C365        C  0.96980873  0.82658337  0.08518319     0.76700
C366        C  0.84609825  0.82456124  0.08334694     0.77100
C367        C  0.75950786  0.70510378  0.09930542     0.78200
C368        C  0.86684035  0.72769274  0.01611395     0.77300
Zn369      Zn  0.89662087  0.07443718  0.36355630     1.49700
Zn370      Zn  0.90843671  0.12564722  0.31123387     1.49400
Zn371      Zn  0.83219706  0.04294425  0.32086701     1.49100
Zn372      Zn  0.84111963  0.11598288  0.35634077     1.49500
O373        O  0.87102053  0.09269837  0.33850148    -1.84000
O374        O  0.95744850  0.10070663  0.35500125    -0.74600
O375        O  0.88862800  0.09656257  0.27648163    -0.74500
O376        O  0.85327423  0.00340846  0.31997747    -0.74000
O377        O  0.96626898  0.13529301  0.31781330    -0.74700
O378        O  0.87390181  0.01166595  0.36100260    -0.74300
O379        O  0.82134232  0.05094327  0.28377416    -0.74800
O380        O  0.78220807  0.06246138  0.36761788    -0.74200
O381        O  0.90810468  0.17930509  0.30900241    -0.75000
O382        O  0.78265706  0.01272062  0.34318925    -0.74400
O383        O  0.85466614  0.17121889  0.33430460    -0.74800
O384        O  0.86639257  0.13611572  0.39226928    -0.74800
O385        O  0.89197895  0.09398783  0.39949034    -0.74500
C386        C  0.98055896  0.12288103  0.33610533     0.77200
C387        C  0.85239335  0.06989734  0.26821580     0.77700
C388        C  0.86232980  0.98987046  0.34015207     0.76700
C389        C  0.76791771  0.02348934  0.36214025     0.77100
C390        C  0.88461200  0.19279166  0.31760195     0.78200
C391        C  0.88257829  0.12096013  0.40745970     0.77300
Zn392      Zn  0.89944091  0.06765772  0.06110668     1.49700
Zn393      Zn  0.87735807  0.13544937  0.07661990     1.49400
Zn394      Zn  0.82559982  0.04209225  0.10159848     1.49100
Zn395      Zn  0.91648353  0.09306070  0.11514510     1.49500
O396        O  0.87820762  0.08609709  0.08846975    -1.84000
O397        O  0.88922484  0.08405664  0.02692436    -0.74600
O398        O  0.81246556  0.11686510  0.07591374    -0.74500
O399        O  0.82190042  0.98713279  0.09271901    -0.74000
O400        O  0.89161503  0.14379974  0.03693649    -0.74700
O401        O  0.87435881  0.00640051  0.06417004    -0.74300
O402        O  0.78060094  0.04821828  0.08444477    -0.74800
O403        O  0.88899729  0.06764531  0.14874387    -0.74200
O404        O  0.92645248  0.18747185  0.09832986    -0.75000
O405        O  0.82202025  0.04482420  0.14126133    -0.74400
O406        O  0.94950990  0.15250654  0.12165117    -0.74800
O407        O  0.96008477  0.07862429  0.10539869    -0.74800
O408        O  0.96135739  0.09346346  0.06375080    -0.74500
C409        C  0.89143142  0.11810202  0.02007179     0.77200
C410        C  0.77927994  0.07996719  0.07597929     0.77700
C411        C  0.84434106  0.97849420  0.07777623     0.76700
C412        C  0.85175495  0.05355562  0.15702782     0.77100
C413        C  0.95251495  0.18676357  0.11476377     0.78200
C414        C  0.97962717  0.09045306  0.08373702     0.77300
C415        C  0.85638473  0.13288130  0.44981941    -0.26200
C416        C  0.88909960  0.13321928  0.43530679    -0.14300
C417        C  0.92573389  0.14074935  0.44838075     0.36300
C418        C  0.92703608  0.14311750  0.47559372    -0.25700
C419        C  0.89269691  0.13842022  0.49023290    -0.14900
C420        C  0.85778492  0.13523644  0.47732242     0.37400
N421        N  0.84186917  0.14823216  0.99276701    -0.89100
H422        H  0.82849032  0.12774987  0.43987016     0.18500
H423        H  0.95411401  0.14599646  0.48550160     0.18500
N424        N  0.96194400  0.14572608  0.43461285    -0.88200
H425        H  0.82350745  0.15408437  0.98003424     0.35900
H426        H  0.86092658  0.17633990  0.00251812     0.41000
H427        H  0.97083561  0.16931613  0.42059251     0.40600
H428        H  0.95457805  0.11776814  0.42525770     0.35500
C429        C  0.87410506  0.04510408  0.20063470    -0.26200
C430        C  0.84505894  0.04971447  0.18567187    -0.14300
C431        C  0.81480966  0.05634893  0.19848014     0.36300
C432        C  0.81602874  0.06062511  0.22586996    -0.25700
C433        C  0.84752193  0.05958532  0.24027533    -0.14900
C434        C  0.87581456  0.05019824  0.22771006     0.37400
N435        N  0.90667775  0.04658340  0.24252578    -0.89100
H436        H  0.89679758  0.03908585  0.19101930     0.18500
H437        H  0.79398218  0.06722797  0.23580551     0.18500
N438        N  0.78449896  0.06086571  0.18371373    -0.88200
H439        H  0.92542831  0.03997734  0.23029298     0.35900
H440        H  0.89074104  0.02089408  0.25508448     0.41000
H441        H  0.80067652  0.08850496  0.17280128     0.40600
H442        H  0.76416367  0.06476855  0.19619527     0.35500
C443        C  0.84535555  0.88067061  0.05752732    -0.26200
C444        C  0.83965550  0.86082430  0.08180150    -0.14300
C445        C  0.83015338  0.87734832  0.10409898     0.36300
C446        C  0.82914332  0.91459621  0.10174142    -0.25700
C447        C  0.83801818  0.93593706  0.07782752    -0.14900
C448        C  0.84535073  0.91818955  0.05536285     0.37400
N449        N  0.85310383  0.93747247  0.03010430    -0.89100
H450        H  0.85194447  0.86812479  0.04014847     0.18500
H451        H  0.82354278  0.92818160  0.11899231     0.18500
N452        N  0.82276147  0.85718193  0.12915336    -0.88200
H453        H  0.88170931  0.96555434  0.03016243     0.35900
H454        H  0.82907249  0.94358561  0.02596318     0.41000
H455        H  0.79508602  0.82827557  0.12795083     0.40600
H456        H  0.81758285  0.87423779  0.14352017     0.35500
C457        C  0.85016155  0.88681896  0.31586816    -0.26200
C458        C  0.85404367  0.86936163  0.33913041    -0.14300
C459        C  0.85818510  0.89047221  0.36289247     0.36300
C460        C  0.86041002  0.92941369  0.36281029    -0.25700
C461        C  0.85863284  0.94802470  0.33938055    -0.14900
C462        C  0.85278916  0.92596368  0.31569325     0.37400
N463        N  0.85091969  0.94360214  0.29122395    -0.89100
H464        H  0.84729330  0.87110046  0.29747166     0.18500
H465        H  0.86392062  0.94523443  0.38123995     0.18500
N466        N  0.86027113  0.87253851  0.38719847    -0.88200
H467        H  0.82244325  0.92286647  0.28247214     0.35900
H468        H  0.87510518  0.94609802  0.27917936     0.41000
H469        H  0.83575693  0.86928024  0.39922256     0.40600
H470        H  0.88849172  0.89354608  0.39612324     0.35500
C471        C  0.82650817  0.72261978  0.44362415    -0.26200
C472        C  0.86409849  0.73097968  0.43157575    -0.14300
C473        C  0.89812177  0.73700082  0.44664499     0.36300
C474        C  0.89427276  0.73531207  0.47378651    -0.25700
C475        C  0.85735913  0.72867530  0.48636949    -0.14900
C476        C  0.82287944  0.72215961  0.47101348     0.37400
N477        N  0.78479511  0.71593348  0.48299652    -0.89100
H478        H  0.80069583  0.71837775  0.43164206     0.18500
H479        H  0.92096432  0.74034030  0.48510405     0.18500
N480        N  0.93672373  0.74539470  0.43422012    -0.88200
H481        H  0.76204823  0.70917633  0.46888742     0.35900
H482        H  0.77433840  0.69330611  0.97780954     0.41000
H483        H  0.93065348  0.71888093  0.42346688     0.40600
H484        H  0.95901655  0.74967843  0.44812072     0.35500
C485        C  0.91705862  0.74878985  0.22161119    -0.26200
C486        C  0.88048811  0.72792294  0.23689478    -0.14300
C487        C  0.84168425  0.70221438  0.22495657     0.36300
C488        C  0.83969424  0.69966063  0.19771434    -0.25700
C489        C  0.87577635  0.72338257  0.18242303    -0.14900
C490        C  0.91496563  0.74745470  0.19445480     0.37400
N491        N  0.95287351  0.77124349  0.17959113    -0.89100
H492        H  0.94705076  0.76836365  0.23077644     0.18500
H493        H  0.80955481  0.68111025  0.18849195     0.18500
N494        N  0.80433288  0.67923019  0.24043450    -0.88200
H495        H  0.95072960  0.79393772  0.16872144     0.35900
H496        H  0.95600783  0.75098885  0.16671272     0.41000
H497        H  0.79120548  0.64744249  0.23606337     0.40600
H498        H  0.78308696  0.68851274  0.23489712     0.35500
C499        C  0.03940595  0.09864515  0.05675877    -0.26200
C500        C  0.02371458  0.10085509  0.08148777    -0.14300
C501        C  0.05083362  0.11378355  0.10317473     0.36300
C502        C  0.09171314  0.12191082  0.09985109    -0.25700
C503        C  0.10631164  0.11683360  0.07551575    -0.14900
C504        C  0.08024496  0.10581136  0.05361077     0.37400
N505        N  0.09429354  0.09932100  0.02867467    -0.89100
H506        H  0.01907566  0.08923797  0.03999205     0.18500
H507        H  0.11164090  0.13009988  0.11679325     0.18500
N508        N  0.03805607  0.11881308  0.12880213    -0.88200
H509        H  0.07138455  0.09172820  0.01455414     0.35900
H510        H  0.09808498  0.07325139  0.03039106     0.41000
H511        H  0.01450240  0.08973599  0.13573551     0.40600
H512        H  0.02668322  0.13954718  0.12777281     0.35500
C513        C  0.07439467  0.91574019  0.06008783    -0.26200
C514        C  0.08444499  0.94533507  0.08004265    -0.14300
C515        C  0.05605532  0.93575758  0.10118674     0.36300
C516        C  0.01965290  0.89674253  0.10236581    -0.25700
C517        C  0.01009976  0.86649822  0.08289101    -0.14900
C518        C  0.03772055  0.87666622  0.06120306     0.37400
N519        N  0.02914447  0.84875546  0.03969585    -0.89100
H520        H  0.09543847  0.92276089  0.04352690     0.18500
H521        H  0.99858614  0.89015921  0.11886050     0.18500
N522        N  0.06239420  0.96517392  0.12141038    -0.88200
H523        H  0.00013551  0.84106465  0.03189636     0.35900
H524        H  0.02820697  0.82163489  0.04640644     0.41000
H525        H  0.06705449  0.99289442  0.11287422     0.40600
H526        H  0.08864360  0.97120881  0.13218870     0.35500
C527        C  0.04914172  0.90170229  0.34997735    -0.26200
C528        C  0.02965517  0.88114769  0.32679244    -0.14300
C529        C  0.05041949  0.89773936  0.30255325     0.36300
C530        C  0.08867717  0.93581373  0.30218309    -0.25700
C531        C  0.10648417  0.95717146  0.32537881    -0.14900
C532        C  0.08714719  0.93929860  0.34948295     0.37400
N533        N  0.10598068  0.95937875  0.37359446    -0.89100
H534        H  0.03458160  0.88903587  0.36879164     0.18500
H535        H  0.10385718  0.94961977  0.28368808     0.18500
N536        N  0.03245757  0.87671626  0.27842550    -0.88200
H537        H  0.08483708  0.96529249  0.38376982     0.35900
H538        H  0.11083223  0.93855586  0.38471611     0.41000
H539        H  0.03347215  0.84896598  0.27829871     0.40600
H540        H  0.05073655  0.89437029  0.26249977     0.35500
C541        C  0.21014877  0.04651546  0.43184579    -0.26200
C542        C  0.24224934  0.08372853  0.42060110    -0.14300
C543        C  0.27351158  0.11429330  0.43664566     0.36300
C544        C  0.26994743  0.10848156  0.46383467    -0.25700
C545        C  0.23642275  0.07243864  0.47512984    -0.14900
C546        C  0.20693502  0.04050121  0.45902810     0.37400
N547        N  0.17241698  0.00343158  0.47036748    -0.89100
H548        H  0.18625820  0.02303522  0.41944024     0.18500
H549        H  0.29241509  0.13297897  0.47639157     0.18500
N550        N  0.30677043  0.15247231  0.42551964    -0.88200
H551        H  0.15362088  0.98298346  0.45577095     0.35900
H552        H  0.15370527  0.01245614  0.48068950     0.41000
H553        H  0.32595851  0.14476807  0.41458562     0.40600
H554        H  0.32558197  0.17270695  0.44019498     0.35500
C555        C  0.27281961  0.11054441  0.18545457    -0.26200
C556        C  0.24896597  0.12159789  0.16994937    -0.14300
C557        C  0.22456195  0.13661814  0.18181112     0.36300
C558        C  0.22247176  0.13820710  0.20908061    -0.25700
C559        C  0.24348332  0.12379974  0.22468375    -0.14900
C560        C  0.27009275  0.11120841  0.21282442     0.37400
N561        N  0.29329769  0.09809782  0.22862997    -0.89100
H562        H  0.29136647  0.09877128  0.17625285     0.18500
H563        H  0.20230479  0.14824397  0.21803063     0.18500
N564        N  0.20077050  0.14897055  0.16611739    -0.88200
H565        H  0.31459116  0.12395986  0.23950524     0.35900
H566        H  0.31102088  0.08945833  0.21690885     0.41000
H567        H  0.21015603  0.18007900  0.17053504     0.40600
H568        H  0.16919451  0.13041838  0.17140340     0.35500
C569        C  0.04111524  0.13234574  0.30965298    -0.26200
C570        C  0.02394643  0.13116028  0.33438483    -0.14300
C571        C  0.04617637  0.13240759  0.35687581     0.36300
C572        C  0.08327043  0.13107846  0.35410410    -0.25700
C573        C  0.09892217  0.12893050  0.32932627    -0.14900
C574        C  0.07846478  0.13150109  0.30679786     0.37400
N575        N  0.09454666  0.13166155  0.28108767    -0.89100
H576        H  0.02424099  0.13183827  0.29237317     0.18500
H577        H  0.09950616  0.13080706  0.37150281     0.18500
N578        N  0.03057767  0.13419995  0.38241334    -0.88200
H579        H  0.12237766  0.16023290  0.27869380     0.35900
H580        H  0.07423245  0.13094825  0.26678015     0.41000
H581        H  0.03091872  0.16254948  0.38376463     0.40600
H582        H  0.05055402  0.13468534  0.39690710     0.35500
C583        C  0.03865394  0.70672114  0.39190373    -0.26200
C584        C  0.07423358  0.74758514  0.39069503    -0.14300
C585        C  0.06969745  0.77913304  0.37836398     0.36300
C586        C  0.03131908  0.76880975  0.36647604    -0.25700
C587        C  0.99613810  0.72769962  0.36680780    -0.14900
C588        C  0.99986974  0.69676782  0.38066781     0.37400
N589        N  0.96548520  0.65477654  0.38291252    -0.89100
H590        H  0.04122692  0.68191016  0.40130355     0.18500
H591        H  0.02900832  0.79348459  0.35666262     0.18500
N592        N  0.10464848  0.82117037  0.37664555    -0.88200
H593        H  0.95564608  0.64304515  0.36413535     0.35900
H594        H  0.94090584  0.65552596  0.39268323     0.41000
H595        H  0.11080536  0.83340868  0.39553907     0.40600
H596        H  0.09686629  0.84017226  0.36581550     0.35500
C597        C  0.26759410  0.92870749  0.12953083    -0.26200
C598        C  0.22585422  0.89612537  0.13455755    -0.14300
C599        C  0.19323622  0.90271404  0.12673555     0.36300
C600        C  0.20252543  0.93977549  0.11334197    -0.25700
C601        C  0.24405816  0.97159391  0.10747542    -0.14900
C602        C  0.27698759  0.96631355  0.11640806     0.37400
N603        N  0.31965968  0.99797169  0.11110020    -0.89100
H604        H  0.29329295  0.92455912  0.13545330     0.18500
H605        H  0.17660480  0.94347371  0.10721492     0.18500
N606        N  0.15044317  0.87134881  0.13145987    -0.88200
H607        H  0.34014114  0.98851813  0.11795780     0.35900
H608        H  0.32582339  0.02452477  0.12182121     0.41000
H609        H  0.13533467  0.86243992  0.11348711     0.40600
H610        H  0.13639212  0.88487478  0.14248854     0.35500
C611        C  0.25122113  0.80822006  0.26739426    -0.26200
C612        C  0.21125453  0.78702184  0.25647589    -0.14300
C613        C  0.17554163  0.76942366  0.27278741     0.36300
C614        C  0.18060554  0.77081763  0.29993952    -0.25700
C615        C  0.22068016  0.78969998  0.31104835    -0.14900
C616        C  0.25637529  0.81024594  0.29445619     0.37400
N617        N  0.29818058  0.83121619  0.30426270    -0.89100
H618        H  0.27867832  0.82158274  0.25474631     0.18500
H619        H  0.15305485  0.75558347  0.31245786     0.18500
N620        N  0.13441798  0.74742467  0.26168300    -0.88200
H621        H  0.30265796  0.80994440  0.31513260     0.35900
H622        H  0.30197521  0.85571444  0.31632146     0.41000
H623        H  0.12981085  0.76937654  0.25166989     0.40600
H624        H  0.11146451  0.73481806  0.27636433     0.35500
C625        C  0.18027885  0.71786744  0.01856435    -0.26200
C626        C  0.19309546  0.75686042  0.00698945    -0.14300
C627        C  0.20375795  0.79204587  0.02274856     0.36300
C628        C  0.20273783  0.78765946  0.04998842    -0.25700
C629        C  0.19132170  0.74890065  0.06156078    -0.14900
C630        C  0.17904638  0.71343205  0.04562066     0.37400
N631        N  0.16766167  0.67317695  0.05620499    -0.89100
H632        H  0.17262338  0.69093664  0.00641944     0.18500
H633        H  0.21211205  0.81483902  0.06224488     0.18500
N634        N  0.21766323  0.83237108  0.01107715    -0.88200
H635        H  0.14081201  0.66275723  0.06786098     0.35900
H636        H  0.19215001  0.67615637  0.06772589     0.41000
H637        H  0.22533462  0.83859293  0.50130296     0.40600
H638        H  0.22413474  0.85486942  0.02547176     0.35500
C639        C  0.18091759  0.58176395  0.14284788    -0.26200
C640        C  0.18642543  0.60447485  0.16600155    -0.14300
C641        C  0.18727714  0.58623142  0.19009225     0.36300
C642        C  0.18633362  0.54786160  0.19013688    -0.25700
C643        C  0.18321280  0.52637974  0.16688650    -0.14900
C644        C  0.17904611  0.54302918  0.14302818     0.37400
N645        N  0.17477876  0.52248699  0.11855789    -0.89100
H646        H  0.17906998  0.59458692  0.12424357     0.18500
H647        H  0.18860918  0.53482353  0.20855823     0.18500
N648        N  0.18973315  0.60674075  0.21444550    -0.88200
H649        H  0.14732760  0.49326791  0.11915667     0.35900
H650        H  0.20047504  0.51829776  0.11576411     0.41000
H651        H  0.16142176  0.60627598  0.21710261     0.40600
H652        H  0.19202481  0.58996521  0.23011565     0.35500
C653        C  0.00433832  0.22006667  0.15069803    -0.26200
C654        C  0.98941718  0.22477461  0.12630678    -0.14300
C655        C  0.01510641  0.26140174  0.11184594     0.36300
C656        C  0.05479475  0.29151622  0.12148934    -0.25700
C657        C  0.07048431  0.28580834  0.14531363    -0.14900
C658        C  0.04421578  0.24977341  0.16024447     0.37400
N659        N  0.05791473  0.24327548  0.18503014    -0.89100
H660        H  0.98512901  0.19201603  0.16214039     0.18500
H661        H  0.07406818  0.31913034  0.10971008     0.18500
N662        N  0.00216034  0.26725701  0.08675401    -0.88200
H663        H  0.03524248  0.21489228  0.19336588     0.35900
H664        H  0.06077989  0.26689252  0.19758485     0.41000
H665        H  0.02457746  0.27026978  0.07295015     0.40600
H666        H  0.00191165  0.29539834  0.08709339     0.35500
C667        C  0.26761813  0.25489253  0.38444104    -0.26200
C668        C  0.24907886  0.23982956  0.35991400    -0.14300
C669        C  0.21762911  0.24914824  0.35223522     0.36300
C670        C  0.20601605  0.27239690  0.36857300    -0.25700
C671        C  0.22568703  0.28889117  0.39234820    -0.14900
C672        C  0.25675429  0.27965618  0.40035570     0.37400
N673        N  0.27694146  0.29477240  0.42490453    -0.89100
H674        H  0.29065939  0.24744551  0.39140188     0.18500
H675        H  0.18226207  0.27897942  0.36196994     0.18500
N676        N  0.19680524  0.23511347  0.32773261    -0.88200
H677        H  0.30918429  0.31290243  0.42139107     0.35900
H678        H  0.27145107  0.26895102  0.43621646     0.41000
H679        H  0.20210718  0.26139311  0.31697988     0.40600
H680        H  0.16463514  0.21688134  0.33141609     0.35500
C681        C  0.24489333  0.45201018  0.03184693    -0.26200
C682        C  0.24768874  0.42162169  0.01678572    -0.14300
C683        C  0.24963987  0.38885261  0.02979571     0.36300
C684        C  0.24711766  0.38660965  0.05736434    -0.25700
C685        C  0.24152988  0.41565632  0.07195229    -0.14900
C686        C  0.24163463  0.44932528  0.05907822     0.37400
N687        N  0.23821589  0.48071271  0.07378576    -0.89100
H688        H  0.24432434  0.47783393  0.02231391     0.18500
H689        H  0.24749475  0.36104770  0.06740522     0.18500
N690        N  0.26724478  0.36703188  0.51494419    -0.88200
H691        H  0.23825335  0.50315322  0.06139081     0.35900
H692        H  0.26493848  0.49640902  0.08527721     0.41000
H693        H  0.23971293  0.34567430  0.50550329     0.40600
H694        H  0.27421267  0.34942993  0.52771641     0.35500
C695        C  0.17225654  0.42374288  0.30964439    -0.26200
C696        C  0.16342260  0.38747325  0.32344566    -0.14300
C697        C  0.15202394  0.35034842  0.30950540     0.36300
C698        C  0.15486481  0.35169492  0.28211320    -0.25700
C699        C  0.16899282  0.38959612  0.26844564    -0.14900
C700        C  0.17479546  0.42520724  0.28235159     0.37400
N701        N  0.18513498  0.46335696  0.26884387    -0.89100
H702        H  0.17982817  0.45198323  0.32035633     0.18500
H703        H  0.14910638  0.32377373  0.27170665     0.18500
N704        N  0.14066385  0.31189140  0.32262599    -0.88200
H705        H  0.18914951  0.48670293  0.28201200     0.35900
H706        H  0.15952920  0.45724243  0.25730353     0.41000
H707        H  0.11453302  0.30400396  0.33451090     0.40600
H708        H  0.16550896  0.31696395  0.33451609     0.35500
C709        C  0.21081413  0.57074050  0.38532605    -0.26200
C710        C  0.20322180  0.54921279  0.40921950    -0.14300
C711        C  0.18705711  0.56112667  0.43053313     0.36300
C712        C  0.18173371  0.59579927  0.42824577    -0.25700
C713        C  0.19161171  0.61875312  0.40495917    -0.14900
C714        C  0.20554137  0.60578644  0.38305459     0.37400
N715        N  0.21621882  0.62936259  0.35910943    -0.89100
H716        H  0.22259442  0.56136745  0.36874496     0.18500
H717        H  0.17114173  0.60579331  0.44514225     0.18500
N718        N  0.17592683  0.53813744  0.45460964    -0.88200
H719        H  0.22580541  0.61553580  0.34488329     0.35900
H720        H  0.24203594  0.65898025  0.36270081     0.41000
H721        H  0.14423877  0.52720659  0.45847928     0.40600
H722        H  0.19337525  0.55872901  0.46952600     0.35500
C723        C  0.38708544  0.78930214  0.43300039    -0.26200
C724        C  0.36529421  0.78109417  0.40938303    -0.14300
C725        C  0.38408612  0.77705888  0.38622603     0.36300
C726        C  0.42307833  0.77956164  0.38728090    -0.25700
C727        C  0.44329124  0.78498481  0.41110077    -0.14900
C728        C  0.42579320  0.79111584  0.43402696     0.37400
N729        N  0.44722646  0.79907708  0.45834849    -0.89100
H730        H  0.37380886  0.79366441  0.45087617     0.18500
H731        H  0.43633924  0.77461338  0.36958578     0.18500
N732        N  0.36303662  0.76855281  0.36174563    -0.88200
H733        H  0.45241514  0.82785149  0.46540760     0.35900
H734        H  0.42751779  0.77582404  0.47163557     0.41000
H735        H  0.35903182  0.74024051  0.35464417     0.40600
H736        H  0.38237039  0.79228366  0.34860984     0.35500
C737        C  0.72101191  0.92163462  0.40062049    -0.26200
C738        C  0.67787719  0.90643126  0.39894651    -0.14300
C739        C  0.66509191  0.93437761  0.38903175     0.36300
C740        C  0.69481573  0.97432991  0.37912869    -0.25700
C741        C  0.73756586  0.98804896  0.37923653    -0.14900
C742        C  0.75074042  0.96192205  0.39103565     0.37400
N743        N  0.79466655  0.97586843  0.39210393    -0.89100
H744        H  0.73165064  0.90138836  0.40832446     0.18500
H745        H  0.68413684  0.99368179  0.37006684     0.18500
N746        N  0.62167387  0.92214131  0.38829870    -0.88200
H747        H  0.79952039  0.95321952  0.40092318     0.35900
H748        H  0.80864409  0.00228406  0.40408424     0.41000
H749        H  0.61385822  0.92341294  0.36890400     0.40600
H750        H  0.61755347  0.94395857  0.39897985     0.35500
C751        C  0.42666112  0.57613120  0.42569608    -0.26200
C752        C  0.43565942  0.60402805  0.40485726    -0.14300
C753        C  0.41058696  0.59061875  0.38253728     0.36300
C754        C  0.37547128  0.55035552  0.38200741    -0.25700
C755        C  0.36462771  0.52304500  0.40352298    -0.14900
C756        C  0.39170491  0.53548816  0.42518104     0.37400
N757        N  0.38273251  0.50785484  0.44707407    -0.89100
H758        H  0.44682784  0.58628753  0.44256670     0.18500
H759        H  0.35539057  0.54128732  0.36512083     0.18500
N760        N  0.41926514  0.61857345  0.36098816    -0.88200
H761        H  0.40476816  0.52270991  0.46176894     0.35900
H762        H  0.38622815  0.48291340  0.44065359     0.41000
H763        H  0.39313893  0.62195431  0.35828211     0.40600
H764        H  0.42325325  0.60467962  0.34424249     0.35500
C765        C  0.38853200  0.54523314  0.15558998    -0.26200
C766        C  0.36095477  0.53686138  0.17684238    -0.14300
C767        C  0.37357202  0.56566920  0.19759411     0.36300
C768        C  0.41211634  0.60290175  0.19604564    -0.25700
C769        C  0.43864288  0.61243573  0.17409636    -0.14900
C770        C  0.42708581  0.58262211  0.15401042     0.37400
N771        N  0.45348163  0.59060097  0.13152891    -0.89100
H772        H  0.37981757  0.52310913  0.13968282     0.18500
H773        H  0.42064634  0.62505897  0.21192324     0.18500
N774        N  0.34697623  0.55814054  0.21992784    -0.88200
H775        H  0.43659397  0.58930009  0.11497306     0.35900
H776        H  0.46056529  0.56662236  0.13016314     0.41000
H777        H  0.34077971  0.58272062  0.22137984     0.40600
H778        H  0.36331056  0.55856094  0.23655716     0.35500
C779        C  0.72856159  0.75134410  0.10546435    -0.26200
C780        C  0.72878692  0.71460051  0.11295653    -0.14300
C781        C  0.70394501  0.69205907  0.13478593     0.36300
C782        C  0.67918973  0.70607231  0.14789113    -0.25700
C783        C  0.67921522  0.74284710  0.14026606    -0.14900
C784        C  0.70464860  0.76558849  0.11875414     0.37400
N785        N  0.70574339  0.80254467  0.10927198    -0.89100
H786        H  0.74789769  0.77006077  0.08920856     0.18500
H787        H  0.65895432  0.68761917  0.16392723     0.18500
N788        N  0.70338984  0.65484004  0.14341462    -0.88200
H789        H  0.71616237  0.82462778  0.12427004     0.35900
H790        H  0.67536551  0.79491932  0.10429882     0.41000
H791        H  0.69028246  0.63265401  0.12855274     0.40600
H792        H  0.68379477  0.64207177  0.15978622     0.35500
C793        C  0.57020279  0.72103438  0.29926929    -0.26200
C794        C  0.58717223  0.75776180  0.31417358    -0.14300
C795        C  0.60729670  0.79709950  0.30159687     0.36300
C796        C  0.60778465  0.79910698  0.27434220    -0.25700
C797        C  0.58748640  0.76241094  0.25964124    -0.14900
C798        C  0.56957708  0.72300855  0.27195533     0.37400
N799        N  0.54926694  0.68535728  0.25669632    -0.89100
H800        H  0.55480477  0.69080473  0.30896363     0.18500
H801        H  0.62149751  0.82937298  0.26474844     0.18500
N802        N  0.62613785  0.83499586  0.31647787    -0.88200
H803        H  0.53719513  0.65893477  0.26877940     0.35900
H804        H  0.57211370  0.68473879  0.24480905     0.41000
H805        H  0.61169990  0.85208283  0.31150164     0.40600
H806        H  0.65770960  0.85261908  0.31098468     0.35500
C807        C  0.54795165  0.72614126  0.02571852    -0.26200
C808        C  0.56973511  0.76411782  0.01205788    -0.14300
C809        C  0.58940253  0.80227312  0.02574622     0.36300
C810        C  0.58635792  0.80144842  0.05311216    -0.25700
C811        C  0.56393920  0.76327603  0.06671157    -0.14900
C812        C  0.54434314  0.72520769  0.05282818     0.37400
N813        N  0.51980206  0.68578166  0.06616446    -0.89100
H814        H  0.53312713  0.69684271  0.01509693     0.18500
H815        H  0.60128028  0.83061976  0.06384420     0.18500
N816        N  0.61923611  0.84136451  0.51124318    -0.88200
H817        H  0.50820193  0.66084562  0.05300776     0.35900
H818        H  0.49372326  0.68557122  0.07445452     0.41000
H819        H  0.64370274  0.83815289  0.50344674     0.40600
H820        H  0.63311208  0.86668929  0.52408900     0.35500
C821        C  0.41138062  0.78086560  0.14043935    -0.26200
C822        C  0.42486568  0.77376474  0.16449285    -0.14300
C823        C  0.40246462  0.77146681  0.18755814     0.36300
C824        C  0.36716303  0.77584498  0.18594932    -0.25700
C825        C  0.35280858  0.78134239  0.16187783    -0.14900
C826        C  0.37557219  0.78469588  0.13886290     0.37400
N827        N  0.36127331  0.78986426  0.11392105    -0.89100
H828        H  0.42860749  0.78311731  0.12268673     0.18500
H829        H  0.34965720  0.77327543  0.20364557     0.18500
N830        N  0.41470214  0.76356286  0.21248744    -0.88200
H831        H  0.38019751  0.78911354  0.09885900     0.35900
H832        H  0.36503987  0.81983973  0.11348665     0.41000
H833        H  0.40933188  0.73295863  0.21218943     0.40600
H834        H  0.39577148  0.76446918  0.22749073     0.35500
C835        C  0.92745464  0.61716409  0.07480408    -0.26200
C836        C  0.89095584  0.61777393  0.06756662    -0.14300
C837        C  0.86784863  0.59261793  0.04639763     0.36300
C838        C  0.88180130  0.56883961  0.03281793    -0.25700
C839        C  0.91866306  0.56837072  0.03957473    -0.14900
C840        C  0.94090426  0.59224728  0.06154646     0.37400
N841        N  0.97767291  0.59278066  0.07049433    -0.89100
H842        H  0.94617946  0.63688216  0.09068570     0.18500
H843        H  0.86297514  0.55024793  0.01662293     0.18500
N844        N  0.83106830  0.59208006  0.03730790    -0.88200
H845        H  0.99921186  0.60211321  0.05500099     0.35900
H846        H  0.96945094  0.56242338  0.07614871     0.41000
H847        H  0.83895865  0.62262202  0.03223418     0.40600
H848        H  0.80893691  0.58155667  0.05247170     0.35500
C849        C  0.04494930  0.40889743  0.49360595    -0.26200
C850        C  0.01635758  0.41001019  0.47636901    -0.14300
C851        C  0.01568218  0.39656508  0.45029415     0.36300
C852        C  0.04438052  0.38434325  0.44175143    -0.25700
C853        C  0.07412796  0.38483084  0.45867358    -0.14900
C854        C  0.07336854  0.39631911  0.48517881     0.37400
N855        N  0.10082722  0.39493322  0.50416388    -0.89100
H856        H  0.04129323  0.41301471  0.01324968     0.18500
H857        H  0.04503211  0.37695820  0.42132697     0.18500
N858        N  0.98663954  0.39660661  0.43203562    -0.88200
H859        H  0.12735910  0.40965109  0.99898204     0.35900
H860        H  0.09707705  0.36495562  0.50398361     0.41000
H861        H  0.96846511  0.36620081  0.42484608     0.40600
H862        H  0.00367529  0.41620237  0.41641396     0.35500
C863        C  0.92216760  0.28978631  0.27335388    -0.26200
C864        C  0.91884085  0.31817793  0.28995642    -0.14300
C865        C  0.90442780  0.30512439  0.31600388     0.36300
C866        C  0.89218496  0.26400098  0.32440596    -0.25700
C867        C  0.89426474  0.23512781  0.30758020    -0.14900
C868        C  0.90996788  0.24861839  0.28173847     0.37400
N869        N  0.91214229  0.21992001  0.26367954    -0.89100
H870        H  0.93162741  0.29875107  0.25320544     0.18500
H871        H  0.88138758  0.25461396  0.34432400     0.18500
N872        N  0.90121934  0.33363272  0.33372219    -0.88200
H873        H  0.92431153  0.23443664  0.24564470     0.35900
H874        H  0.88151560  0.19576105  0.26034893     0.41000
H875        H  0.93147270  0.35877997  0.33663842     0.40600
H876        H  0.88988562  0.31952350  0.35195939     0.35500
C877        C  0.05709871  0.64314710  0.21799271    -0.26200
C878        C  0.06462180  0.63978773  0.19127160    -0.14300
C879        C  0.04571752  0.59858906  0.18054444     0.36300
C880        C  0.02205170  0.56326250  0.19646528    -0.25700
C881        C  0.01546571  0.56655634  0.22310230    -0.14900
C882        C  0.03257945  0.60717636  0.23386785     0.37400
N883        N  0.02555658  0.61178529  0.26099400    -0.89100
H884        H  0.07161276  0.67389592  0.22682116     0.18500
H885        H  0.00752694  0.53258222  0.18768866     0.18500
N886        N  0.04901026  0.59107437  0.15338428    -0.88200
H887        H  0.04018638  0.64347431  0.26598603     0.35900
H888        H  0.03996450  0.59875979  0.27186360     0.41000
H889        H  0.07953319  0.59822389  0.14890732     0.40600
H890        H  0.04098849  0.60958290  0.14223733     0.35500
C891        C  0.91887967  0.48473145  0.36248869    -0.26200
C892        C  0.88307078  0.45266207  0.35023562    -0.14300
C893        C  0.85054564  0.42175000  0.36603435     0.36300
C894        C  0.85552066  0.42179156  0.39304347    -0.25700
C895        C  0.89183572  0.45261693  0.40511601    -0.14900
C896        C  0.92357214  0.48500061  0.38984354     0.37400
N897        N  0.96096342  0.51698241  0.40198184    -0.89100
H898        H  0.94402288  0.50862358  0.35066438     0.18500
H899        H  0.83059364  0.39731636  0.40473503     0.18500
N900        N  0.81225069  0.38993984  0.35482786    -0.88200
H901        H  0.98124176  0.53844195  0.38803258     0.35900
H902        H  0.97649751  0.50255637  0.40988053     0.41000
H903        H  0.78749691  0.39197055  0.36332873     0.40600
H904        H  0.80843252  0.36073926  0.35965004     0.35500
C905        C  0.95071877  0.44662693  0.11360421    -0.26200
C906        C  0.91350213  0.41903255  0.10060233    -0.14300
C907        C  0.87999871  0.38662952  0.11507162     0.36300
C908        C  0.88292924  0.38503972  0.14211191    -0.25700
C909        C  0.91847346  0.41497057  0.15529698    -0.14900
C910        C  0.95351475  0.44487993  0.14093038     0.37400
N911        N  0.99061638  0.47489850  0.15420466    -0.89100
H912        H  0.97679388  0.47110222  0.10264121     0.18500
H913        H  0.85607177  0.36167213  0.15314713     0.18500
N914        N  0.84250706  0.35500645  0.10301419    -0.88200
H915        H  0.01317939  0.49547539  0.14085665     0.35900
H916        H  0.00327160  0.45849854  0.16325384     0.41000
H917        H  0.85079254  0.34109275  0.08810833     0.40600
H918        H  0.82633989  0.36869735  0.09512690     0.35500
C919        C  0.68986338  0.56302748  0.29270408    -0.26200
C920        C  0.65801101  0.57322319  0.28947615    -0.14300
C921        C  0.66506612  0.61165220  0.29998466     0.36300
C922        C  0.70357277  0.63863324  0.31240426    -0.25700
C923        C  0.73605760  0.62901754  0.31464715    -0.14900
C924        C  0.72830716  0.59005361  0.30500549     0.37400
N925        N  0.76028109  0.57891227  0.30628856    -0.89100
H926        H  0.68507213  0.53368612  0.28493207     0.18500
H927        H  0.70869061  0.66842354  0.31957906     0.18500
N928        N  0.63516376  0.62537797  0.29756894    -0.88200
H929        H  0.75076273  0.55050528  0.29681316     0.35900
H930        H  0.76387350  0.57395205  0.32592975     0.41000
H931        H  0.60861637  0.60358977  0.28757923     0.40600
H932        H  0.64905848  0.65265721  0.28621117     0.35500
C933        C  0.34003580  0.35534774  0.20234503    -0.26200
C934        C  0.31931607  0.37641039  0.21023311    -0.14300
C935        C  0.33981634  0.40987071  0.22820879     0.36300
C936        C  0.38044096  0.42167517  0.23756132    -0.25700
C937        C  0.40183273  0.40110174  0.22923858    -0.14900
C938        C  0.38033702  0.36691629  0.21152353     0.37400
N939        N  0.39978999  0.34446773  0.20167196    -0.89100
H940        H  0.32572203  0.33089994  0.18781452     0.18500
H941        H  0.39579079  0.44772171  0.25091880     0.18500
N942        N  0.32012944  0.43337183  0.23578147    -0.88200
H943        H  0.40177478  0.34733787  0.18132842     0.35900
H944        H  0.38050955  0.31279530  0.20637769     0.41000
H945        H  0.33918000  0.45746028  0.24855336     0.40600
H946        H  0.29272494  0.41315952  0.24614492     0.35500
C947        C  0.72655399  0.47084072  0.27026436    -0.26200
C948        C  0.70319678  0.46355230  0.24742455    -0.14300
C949        C  0.72085512  0.46144794  0.22319649     0.36300
C950        C  0.76082945  0.46584883  0.22257904    -0.25700
C951        C  0.78340162  0.47150946  0.24553973    -0.14900
C952        C  0.76615502  0.47472847  0.26962935     0.37400
N953        N  0.78688751  0.47961122  0.29394315    -0.89100
H954        H  0.71360680  0.47266922  0.28897313     0.18500
H955        H  0.77371650  0.46294800  0.20410672     0.18500
N956        N  0.69772909  0.45322746  0.19940720    -0.88200
H957        H  0.81549651  0.50772629  0.29343821     0.35900
H958        H  0.79231830  0.45466790  0.29633822     0.41000
H959        H  0.67217635  0.42268581  0.20064704     0.40600
H960        H  0.71570074  0.45376256  0.18336611     0.35500
C961        C  0.41499561  0.27119568  0.02566085    -0.26200
C962        C  0.40937728  0.30635849  0.02543881    -0.14300
C963        C  0.37155853  0.30113279  0.03583256     0.36300
C964        C  0.34124072  0.26190200  0.04637937    -0.25700
C965        C  0.34782012  0.22727684  0.04754812    -0.14900
C966        C  0.38544849  0.23254349  0.03668396     0.37400
N967        N  0.39451760  0.19918843  0.03609123    -0.89100
H968        H  0.43589647  0.31438748  0.57091460     0.18500
H969        H  0.31241315  0.25871469  0.05417646     0.18500
N970        N  0.36369480  0.33524627  0.03682688    -0.88200
H971        H  0.39149667  0.21451014  0.58692173     0.35900
H972        H  0.39571702  0.19031752  0.05526440     0.41000
H973        H  0.36498871  0.34591545  0.01777644     0.40600
H974        H  0.38751727  0.35950206  0.04753506     0.35500
C975        C  0.72094585  0.47520788  0.02009455    -0.26200
C976        C  0.69659228  0.45829828  0.49837557    -0.14300
C977        C  0.71921017  0.45821652  0.47619426     0.36300
C978        C  0.75416146  0.45355833  0.47933274    -0.25700
C979        C  0.77432783  0.46334150  0.00055494    -0.14900
C980        C  0.75591819  0.47027164  0.02296664     0.37400
N981        N  0.77187958  0.47118829  0.04856901    -0.89100
H982        H  0.70528815  0.47803530  0.03732934     0.18500
H983        H  0.77115962  0.45324552  0.46205486     0.18500
N984        N  0.70605632  0.46211124  0.45055539    -0.88200
H985        H  0.75392131  0.47536705  0.06286343     0.35900
H986        H  0.80187683  0.49749484  0.04945489     0.41000
H987        H  0.72588431  0.46108528  0.43623264     0.40600
H988        H  0.70906830  0.49172765  0.44925141     0.35500
C989        C  0.59765798  0.60497679  0.48266988    -0.26200
C990        C  0.56789969  0.56591892  0.47199537    -0.14300
C991        C  0.55135246  0.56612794  0.44737843     0.36300
C992        C  0.56371223  0.60451506  0.43455920    -0.25700
C993        C  0.59232168  0.64403912  0.44543721    -0.14900
C994        C  0.60933459  0.64358829  0.47008373     0.37400
N995        N  0.63818866  0.68152721  0.48301836    -0.89100
H996        H  0.61163670  0.60557316  0.50125453     0.18500
H997        H  0.54985493  0.60313648  0.41581947     0.18500
N998        N  0.52252304  0.52720888  0.43506685    -0.88200
H999        H  0.62336210  0.69873945  0.48679598     0.35900
H1000       H  0.66386982  0.69885461  0.47058095     0.41000
H1001       H  0.53857227  0.51128863  0.43097106     0.40600
H1002       H  0.51281633  0.53254409  0.41711816     0.35500
C1003       C  0.59749884  0.49000338  0.11151004    -0.26200
C1004       C  0.56252949  0.45958193  0.09812782    -0.14300
C1005       C  0.52541020  0.43252558  0.11203194     0.36300
C1006       C  0.52527743  0.43380956  0.13931450    -0.25700
C1007       C  0.56134850  0.46180710  0.15302927    -0.14900
C1008       C  0.59742605  0.49138293  0.13880964     0.37400
N1009       N  0.63514673  0.52158069  0.15134241    -0.89100
H1010       H  0.62589608  0.51109798  0.10080238     0.18500
H1011       H  0.49712036  0.41190917  0.14993764     0.18500
N1012       N  0.48829322  0.40316887  0.09833382    -0.88200
H1013       H  0.64557832  0.50588243  0.16328336     0.35900
H1014       H  0.62872314  0.54121622  0.16271983     0.41000
H1015       H  0.47877343  0.42042732  0.08713073     0.40600
H1016       H  0.46378683  0.38530183  0.11144487     0.35500
C1017       C  0.48803080  0.40118978  0.39027403    -0.26200
C1018       C  0.52492843  0.42489187  0.40444211    -0.14300
C1019       C  0.56237061  0.45317719  0.39120634     0.36300
C1020       C  0.56276074  0.45532498  0.36404679    -0.25700
C1021       C  0.52674890  0.43004450  0.34965360    -0.14900
C1022       C  0.48851628  0.40296487  0.36283119     0.37400
N1023       N  0.45043214  0.37574307  0.34928024    -0.89100
H1024       H  0.45927484  0.37952479  0.40045003     0.18500
H1025       H  0.59179821  0.47644746  0.35389506     0.18500
N1026       N  0.60018523  0.47911572  0.40541477    -0.88200
H1027       H  0.44205050  0.34489737  0.35378315     0.35900
H1028       H  0.45469046  0.37876261  0.32908429     0.41000
H1029       H  0.59525386  0.49969575  0.41686730     0.40600
H1030       H  0.62505626  0.49763278  0.39268343     0.35500
C1031       C  0.34336357  0.06495639  0.27490492    -0.26200
C1032       C  0.34717621  0.08319923  0.29980674    -0.14300
C1033       C  0.38045969  0.08869821  0.31563838     0.36300
C1034       C  0.40917727  0.07722033  0.30625847    -0.25700
C1035       C  0.40661557  0.06067721  0.28092589    -0.14900
C1036       C  0.37300329  0.05450311  0.26511932     0.37400
N1037       N  0.37033582  0.04005919  0.23876878    -0.89100
H1038       H  0.31733615  0.05943679  0.26276630     0.18500
H1039       H  0.43496124  0.08278435  0.31872357     0.18500
N1040       N  0.38548705  0.10504796  0.34154512    -0.88200
H1041       H  0.34472998  0.03871385  0.22938762     0.35900
H1042       H  0.36460143  0.00936367  0.23964680     0.41000
H1043       H  0.35803491  0.08602440  0.35222143     0.40600
H1044       H  0.38981813  0.13519692  0.34045626     0.35500
C1045       C  0.71100653  0.22612338  0.21174808    -0.26200
C1046       C  0.69515977  0.20101742  0.23423917    -0.14300
C1047       C  0.71461968  0.21736108  0.25842506     0.36300
C1048       C  0.74769345  0.25852579  0.25980611    -0.25700
C1049       C  0.76220242  0.28465483  0.23766901    -0.14900
C1050       C  0.74443787  0.26744072  0.21308438     0.37400
N1051       N  0.75833405  0.29118199  0.18932006    -0.89100
H1052       H  0.69616851  0.21404843  0.19310726     0.18500
H1053       H  0.76135863  0.27045207  0.27873239     0.18500
N1054       N  0.69979404  0.19403553  0.28230860    -0.88200
H1055       H  0.78974630  0.30034140  0.18600501     0.35900
H1056       H  0.75534831  0.31771237  0.19122540     0.41000
H1057       H  0.70215893  0.16711865  0.28076451     0.40600
H1058       H  0.66843358  0.18542207  0.28527583     0.35500
C1059       C  0.60396829  0.92791952  0.20963424    -0.26200
C1060       C  0.57603929  0.90128540  0.19061775    -0.14300
C1061       C  0.53861374  0.90303332  0.18683853     0.36300
C1062       C  0.53095086  0.93105516  0.20146757    -0.25700
C1063       C  0.55943176  0.95852884  0.21980057    -0.14900
C1064       C  0.59629646  0.95633349  0.22409320     0.37400
N1065       N  0.62593438  0.98278673  0.24330007    -0.89100
H1066       H  0.63193584  0.92642450  0.21342650     0.18500
H1067       H  0.50286664  0.93239434  0.19775837     0.18500
N1068       N  0.50771354  0.87597765  0.16836283    -0.88200
H1069       H  0.65138610  0.97786801  0.24392244     0.35900
H1070       H  0.61103745  0.97385316  0.26155254     0.41000
H1071       H  0.52018686  0.88668827  0.14968291     0.40600
H1072       H  0.48072802  0.87831295  0.16974659     0.35500
C1073       C  0.53785816  0.23988947  0.22629710    -0.26200
C1074       C  0.54383017  0.22352667  0.24953426    -0.14300
C1075       C  0.54408344  0.24280040  0.27358772     0.36300
C1076       C  0.53965636  0.27806495  0.27361618    -0.25700
C1077       C  0.53525014  0.29519852  0.25029795    -0.14900
C1078       C  0.53409930  0.27577031  0.22635113     0.37400
N1079       N  0.53096404  0.29343496  0.20209179    -0.89100
H1080       H  0.53743269  0.22544560  0.20779592     0.18500
H1081       H  0.54055020  0.29277502  0.29212068     0.18500
N1082       N  0.54864572  0.22763729  0.29834455    -0.88200
H1083       H  0.52976440  0.27482358  0.18635153     0.35900
H1084       H  0.55848244  0.32230471  0.19960959     0.41000
H1085       H  0.57794228  0.22988889  0.29898567     0.40600
H1086       H  0.52489455  0.19642739  0.30063933     0.35500
C1087       C  0.69625167  0.09429060  0.04050301    -0.26200
C1088       C  0.66300034  0.05266011  0.03745380    -0.14300
C1089       C  0.66668968  0.02038325  0.04928814     0.36300
C1090       C  0.70412183  0.03027788  0.06256451    -0.25700
C1091       C  0.73823611  0.07200038  0.06465233    -0.14900
C1092       C  0.73319283  0.10418346  0.05385947     0.37400
N1093       N  0.76562298  0.14710103  0.05596761    -0.89100
H1094       H  0.68861705  0.11933514  0.53597260     0.18500
H1095       H  0.70694926  0.00484563  0.07072369     0.18500
N1096       N  0.63363138  0.97767015  0.04669952    -0.88200
H1097       H  0.74562757  0.15931989  0.57146201     0.35900
H1098       H  0.77470422  0.15941791  0.03711111     0.41000
H1099       H  0.60752519  0.97446150  0.05691200     0.40600
H1100       H  0.64178605  0.95747448  0.05568370     0.35500
C1101       C  0.53659266  0.26435777  0.97738900    -0.26200
C1102       C  0.54884889  0.28740202  0.00080331    -0.14300
C1103       C  0.51795112  0.25124475  0.51920862     0.36300
C1104       C  0.51486336  0.21192144  0.51782293    -0.25700
C1105       C  0.52622440  0.19903428  0.49494501    -0.14900
C1106       C  0.53920728  0.22512373  0.47276712     0.37400
N1107       N  0.55170489  0.21285694  0.44937103    -0.89100
H1108       H  0.53208499  0.27827198  0.96005558     0.18500
H1109       H  0.50460417  0.19179856  0.53491993     0.18500
N1110       N  0.56471299  0.28977896  0.04782535    -0.88200
H1111       H  0.51745753  0.21999011  0.93674077     0.35900
H1112       H  0.53340033  0.21324812  0.43409760     0.41000
H1113       H  0.52236633  0.26172184  0.55808233     0.40600
H1114       H  0.47343743  0.24110747  0.54612699     0.35500
C1115       C  0.37976714  0.96871092  0.46561864    -0.26200
C1116       C  0.41108820  0.95809780  0.47026156    -0.14300
C1117       C  0.40250614  0.91789622  0.46230481     0.36300
C1118       C  0.36479203  0.89074670  0.44946717    -0.25700
C1119       C  0.33401302  0.90172474  0.44427550    -0.14900
C1120       C  0.34163128  0.94111117  0.45310525     0.37400
N1121       N  0.31216966  0.95468277  0.44866799    -0.89100
H1122       H  0.38530984  0.99931174  0.47132807     0.18500
H1123       H  0.35971380  0.86056051  0.44314210     0.18500
N1124       N  0.43447748  0.90645636  0.96891588    -0.88200
H1125       H  0.28394114  0.93358895  0.45792326     0.35900
H1126       H  0.30697521  0.95378229  0.42859580     0.41000
H1127       H  0.43969895  0.90717284  0.98897663     0.40600
H1128       H  0.46261354  0.92707958  0.95940181     0.35500
C1129       C  0.50685322  0.09365662  0.13416302    -0.26200
C1130       C  0.50468303  0.06105746  0.14931759    -0.14300
C1131       C  0.50291391  0.02616709  0.13669846     0.36300
C1132       C  0.50671203  0.02620590  0.10941615    -0.25700
C1133       C  0.51293492  0.06076104  0.09450368    -0.14900
C1134       C  0.51069619  0.09376990  0.10687567     0.37400
N1135       N  0.51388776  0.12800626  0.09174409    -0.89100
H1136       H  0.50770653  0.12020492  0.14379952     0.18500
H1137       H  0.50808444  0.00059360  0.10007356     0.18500
N1138       N  0.50063316  0.99193110  0.15113914    -0.88200
H1139       H  0.51203438  0.14985526  0.10382625     0.35900
H1140       H  0.48791006  0.11588432  0.07953125     0.41000
H1141       H  0.47312730  0.97831099  0.16239563     0.40600
H1142       H  0.52620655  0.00356688  0.16365864     0.35500
C1143       C  0.58388284  0.05501115  0.35528417    -0.26200
C1144       C  0.58515142  0.08944347  0.34277880    -0.14300
C1145       C  0.58744516  0.12244421  0.35813502     0.36300
C1146       C  0.58427568  0.11845467  0.38532067    -0.25700
C1147       C  0.58034093  0.08303802  0.39779964    -0.14900
C1148       C  0.58157219  0.05155699  0.38282473     0.37400
N1149       N  0.57871127  0.01557742  0.39550999    -0.89100
H1150       H  0.58243740  0.02986168  0.34360924     0.18500
H1151       H  0.58458900  0.14315977  0.39693967     0.18500
N1152       N  0.59220684  0.15970723  0.34599195    -0.88200
H1153       H  0.58002041  0.99534217  0.38173662     0.35900
H1154       H  0.54927193  0.99916048  0.40458546     0.41000
H1155       H  0.62132170  0.17469413  0.33643183     0.40600
H1156       H  0.59289580  0.18065871  0.35998846     0.35500
C1157       C  0.71494857  0.23240774  0.02614222    -0.26200
C1158       C  0.70558292  0.20786315  0.00359122    -0.14300
C1159       C  0.72314332  0.22965259  0.47693467     0.36300
C1160       C  0.76219058  0.26586259  0.47873059    -0.25700
C1161       C  0.78113949  0.28060233  0.50292522    -0.14900
C1162       C  0.75137861  0.27117819  0.02786762     0.37400
N1163       N  0.75775730  0.29411464  0.05161113    -0.89100
H1164       H  0.69295179  0.22230747  0.04240457     0.18500
H1165       H  0.77658101  0.28407160  0.46117219     0.18500
N1166       N  0.70485257  0.21813064  0.45158301    -0.88200
H1167       H  0.75578142  0.32083833  0.04796626     0.35900
H1168       H  0.78719947  0.30243622  0.05892835     0.41000
H1169       H  0.67613583  0.21722237  0.45187582     0.40600
H1170       H  0.70039892  0.18869008  0.44677940     0.35500
Zn1171     Zn  0.53313043  0.02568868  0.51595348     1.49700
Zn1172     Zn  0.57519893  0.12269000  0.52292343     1.49400
Zn1173     Zn  0.60808279  0.09089654  0.97964033     1.49100
Zn1174     Zn  0.52432174  0.08551167  0.97251037     1.49500
O1175       O  0.55550043  0.07852845  0.49777713    -1.84000
O1176       O  0.51405403  0.03154852  0.55275448    -0.74600
O1177       O  0.63825254  0.15848698  0.52107759    -0.74500
O1178       O  0.63726693  0.06983450  0.00083490    -0.74000
O1179       O  0.55414554  0.10016140  0.55884372    -0.74700
O1180       O  0.58752568  0.02123509  0.52569465    -0.74300
O1181       O  0.64932527  0.15193056  0.98045150    -0.74800
O1182       O  0.54927441  0.08874095  0.93610844    -0.74200
O1183       O  0.55331027  0.16044576  0.51424662    -0.75000
O1184       O  0.59909578  0.07274727  0.94227947    -0.74400
O1185       O  0.52170402  0.13906157  0.97949588    -0.74800
O1186       O  0.46796205  0.03197911  0.97375021    -0.74800
O1187       O  0.47738028  0.98348261  0.49434030    -0.74500
C1188       C  0.52827894  0.06369627  0.56749700     0.77200
C1189       C  0.65955162  0.17045000  0.49987185     0.77700
C1190       C  0.62635682  0.04607034  0.51934580     0.76700
C1191       C  0.57645734  0.08009947  0.92719686     0.77100
C1192       C  0.53966891  0.16674277  0.99722031     0.78200
C1193       C  0.45619517  0.99441886  0.98084907     0.77300
Zn1194     Zn  0.56919404  0.12607995  0.71989269     1.49700
Zn1195     Zn  0.50167362  0.03571578  0.73594619     1.49400
Zn1196     Zn  0.59559402  0.07789735  0.75966881     1.49100
Zn1197     Zn  0.54477159  0.11651149  0.77523755     1.49500
O1198       O  0.55127429  0.08610824  0.74747191    -1.84000
O1199       O  0.55211137  0.09931848  0.68542135    -0.74600
O1200       O  0.52048804  0.98963303  0.73453669    -0.74500
O1201       O  0.65042691  0.12993665  0.75045009    -0.74000
O1202       O  0.49352530  0.04066433  0.69631300    -0.74700
O1203       O  0.63066064  0.16183539  0.72195437    -0.74300
O1204       O  0.58940219  0.02714443  0.74208706    -0.74800
O1205       O  0.57010224  0.11346783  0.80862625    -0.74200
O1206       O  0.44953159  0.03361312  0.75787733    -0.75000
O1207       O  0.59373832  0.07048044  0.79926773    -0.74400
O1208       O  0.48512589  0.09131710  0.78160231    -0.74800
O1209       O  0.56238918  0.17552240  0.76598631    -0.74800
O1210       O  0.54626357  0.16480071  0.72422667    -0.74500
C1211       C  0.51888718  0.06606573  0.67906073     0.77200
C1212       C  0.55747132  0.99378769  0.73407164     0.77700
C1213       C  0.65866971  0.16090542  0.73563057     0.76700
C1214       C  0.58536700  0.09111552  0.81579543     0.77100
C1215       C  0.45048327  0.06075986  0.77439221     0.78200
C1216       C  0.55341818  0.18665637  0.74472338     0.77300
Zn1217     Zn  0.50331774  0.42958786  0.98689075     1.49700
Zn1218     Zn  0.59185344  0.47758189  0.51403926     1.49400
Zn1219     Zn  0.53770040  0.38655316  0.52856437     1.49100
Zn1220     Zn  0.57429211  0.40853593  0.97507628     1.49500
O1221       O  0.55163963  0.42869642  0.00077251    -1.84000
O1222       O  0.52312121  0.49502433  0.98423586    -0.74600
O1223       O  0.58320330  0.48181429  0.55272449    -0.74500
O1224       O  0.47803602  0.35412728  0.53240936    -0.74000
O1225       O  0.58951158  0.52378151  0.49457585    -0.74700
O1226       O  0.44795582  0.37775772  0.00539328    -0.74300
O1227       O  0.55724494  0.41456646  0.56260398    -0.74800
O1228       O  0.55347424  0.34730574  0.98013380    -0.74200
O1229       O  0.64649064  0.47809909  0.50948964    -0.75000
O1230       O  0.55104700  0.34120454  0.52091045    -0.74400
O1231       O  0.63604112  0.43840552  0.97853825    -0.74800
O1232       O  0.55710391  0.41409034  0.93996900    -0.74800
O1233       O  0.49840471  0.41504671  0.94795821    -0.74500
C1234       C  0.55991171  0.52820988  0.98604253     0.77200
C1235       C  0.57016352  0.45219377  0.56938416     0.77700
C1236       C  0.44453601  0.35097811  0.52415446     0.76700
C1237       C  0.54227498  0.32220098  0.49910390     0.77100
C1238       C  0.66136888  0.46641531  0.99408560     0.78200
C1239       C  0.52401228  0.41275665  0.93207706     0.77300
Zn1240     Zn  0.58149131  0.42070730  0.77423210     1.49700
Zn1241     Zn  0.60242322  0.48045325  0.73159751     1.49400
Zn1242     Zn  0.52001156  0.39958182  0.72677848     1.49100
Zn1243     Zn  0.53075636  0.46568385  0.77201490     1.49500
O1244       O  0.55527934  0.44029490  0.75120703    -1.84000
O1245       O  0.64429224  0.45306205  0.77153878    -0.74600
O1246       O  0.58937125  0.48890604  0.69524878    -0.74500
O1247       O  0.52166934  0.34557802  0.73065187    -0.74000
O1248       O  0.64424879  0.46175441  0.72890944    -0.74700
O1249       O  0.56594978  0.36354556  0.76353064    -0.74300
O1250       O  0.53937336  0.42269265  0.69041860    -0.74800
O1251       O  0.47234885  0.44915860  0.75234668    -0.74200
O1252       O  0.63220864  0.53089624  0.75304444    -0.75000
O1253       O  0.46283026  0.39231270  0.73051358    -0.74400
O1254       O  0.58585361  0.52361556  0.78377747    -0.74800
O1255       O  0.51309258  0.43616552  0.80712328    -0.74800
O1256       O  0.56161313  0.41818389  0.81054422    -0.74500
C1257       C  0.66198299  0.45890009  0.74927201     0.77200
C1258       C  0.56477907  0.45866819  0.68073798     0.77700
C1259       C  0.54334948  0.33745505  0.74622904     0.76700
C1260       C  0.44936207  0.41635451  0.73813784     0.77100
C1261       C  0.62406400  0.54107200  0.77511069     0.78200
C1262       C  0.53231506  0.42224476  0.82057537     0.77300
Zn1263     Zn  0.85747008  0.38742946  0.77705685     1.49700
Zn1264     Zn  0.94140149  0.42648001  0.74023788     1.49400
Zn1265     Zn  0.85595223  0.41111897  0.72340786     1.49100
Zn1266     Zn  0.90171803  0.47914614  0.76603802     1.49500
O1267       O  0.89226659  0.42743746  0.75181918    -1.84000
O1268       O  0.88346997  0.35498014  0.78568598    -0.74600
O1269       O  0.93341443  0.40773117  0.70168027    -0.74500
O1270       O  0.82030109  0.34902436  0.72302960    -0.74000
O1271       O  0.94417039  0.37948969  0.76424482    -0.74700
O1272       O  0.80160036  0.34362158  0.76445611    -0.74300
O1273       O  0.88686373  0.42601508  0.69022637    -0.74800
O1274       O  0.84998253  0.48301204  0.75855357    -0.74200
O1275       O  0.98724403  0.49106676  0.73572958    -0.75000
O1276       O  0.81879456  0.43472014  0.72791330    -0.74400
O1277       O  0.95360457  0.52474097  0.74821594    -0.74800
O1278       O  0.90675110  0.47815800  0.80557363    -0.74800
O1279       O  0.85485395  0.41279542  0.81038311    -0.74500
C1280       C  0.91600897  0.35317114  0.78045313     0.77200
C1281       C  0.91328701  0.41492932  0.68425981     0.77700
C1282       C  0.79713349  0.32745743  0.74195440     0.76700
C1283       C  0.81926286  0.46198784  0.74334172     0.77100
C1284       C  0.98461480  0.52462657  0.73705178     0.78200
C1285       C  0.88110172  0.44782688  0.82018114     0.77300
Zn1286     Zn  0.94796326  0.46118847  0.52339341     1.49700
Zn1287     Zn  0.89319599  0.39719366  0.97856531     1.49400
Zn1288     Zn  0.85137817  0.40775758  0.52978150     1.49100
Zn1289     Zn  0.89035950  0.47594167  0.98280984     1.49500
O1290       O  0.89801653  0.43761809  0.00324456    -1.84000
O1291       O  0.99138729  0.44949404  0.50216464    -0.74600
O1292       O  0.84471267  0.34010242  0.98814651    -0.74500
O1293       O  0.87314034  0.41081432  0.56577200    -0.74000
O1294       O  0.94758123  0.39839341  0.97720348    -0.74700
O1295       O  0.94055889  0.43344232  0.55862994    -0.74300
O1296       O  0.81619199  0.34752062  0.52167183    -0.74800
O1297       O  0.82995651  0.45746668  0.98159159    -0.74200
O1298       O  0.88467373  0.41329106  0.94240125    -0.75000
O1299       O  0.81331173  0.43221212  0.52713950    -0.74400
O1300       O  0.91030410  0.48176545  0.94593285    -0.74800
O1301       O  0.91101647  0.52827967  0.00203261    -0.74800
O1302       O  0.95126763  0.51836160  0.53530115    -0.74500
C1303       C  0.98456154  0.42313895  0.98519275     0.77200
C1304       C  0.81588231  0.32978334  0.00534724     0.77700
C1305       C  0.90863772  0.41812092  0.57380499     0.76700
C1306       C  0.80360563  0.44272509  0.50581417     0.77100
C1307       C  0.89703218  0.44906464  0.93204113     0.78200
C1308       C  0.92772128  0.53332139  0.52881738     0.77300
Zn1309     Zn  0.55598725  0.72593970  0.64653476     1.49700
Zn1310     Zn  0.51808768  0.75500355  0.69210878     1.49400
Zn1311     Zn  0.61380428  0.80534566  0.68109686     1.49100
Zn1312     Zn  0.54956674  0.80513868  0.64287860     1.49500
O1313       O  0.56029199  0.77159623  0.66588026    -1.84000
O1314       O  0.50310427  0.67261869  0.65636503    -0.74600
O1315       O  0.54342385  0.76172706  0.72735228    -0.74500
O1316       O  0.65491361  0.78954122  0.66130392    -0.74000
O1317       O  0.47640327  0.69477794  0.68727233    -0.74700
O1318       O  0.60833692  0.72324854  0.65098856    -0.74300
O1319       O  0.61097318  0.78645226  0.71793427    -0.74800
O1320       O  0.57528178  0.86245895  0.65648125    -0.74200
O1321       O  0.48549437  0.78491673  0.68796878    -0.75000
O1322       O  0.61687554  0.86350664  0.68761344    -0.74400
O1323       O  0.48927694  0.78786136  0.64486872    -0.74800
O1324       O  0.56419059  0.80106828  0.60602270    -0.74800
O1325       O  0.55392675  0.73651711  0.60830325    -0.74500
C1326       C  0.47390251  0.66586616  0.67255969     0.77200
C1327       C  0.58051870  0.77241001  0.73412194     0.77700
C1328       C  0.64621898  0.75287384  0.65308661     0.76700
C1329       C  0.59523411  0.87814224  0.67733914     0.77100
C1330       C  0.47157399  0.78874801  0.66611618     0.78200
C1331       C  0.56001986  0.76828859  0.59508855     0.77300
Zn1332     Zn  0.56445282  0.70862838  0.89165746     1.49700
Zn1333     Zn  0.51962238  0.72023113  0.93624382     1.49400
Zn1334     Zn  0.61654774  0.77563326  0.93432158     1.49100
Zn1335     Zn  0.56255545  0.79106850  0.89347012     1.49500
O1336       O  0.56662804  0.75093507  0.91394323    -1.84000
O1337       O  0.50556735  0.66061506  0.88816041    -0.74600
O1338       O  0.53727574  0.73298279  0.97276910    -0.74500
O1339       O  0.62424513  0.72353439  0.94291109    -0.74000
O1340       O  0.49078433  0.65827352  0.93024727    -0.74700
O1341       O  0.59104874  0.68121026  0.90980584    -0.74300
O1342       O  0.60253843  0.78682039  0.97036193    -0.74800
O1343       O  0.60953626  0.84833502  0.90148224    -0.74200
O1344       O  0.47736237  0.73709804  0.92943026    -0.75000
O1345       O  0.65823920  0.83621450  0.91755525    -0.74400
O1346       O  0.50601129  0.78608000  0.89861284    -0.74800
O1347       O  0.57186866  0.78235505  0.85596089    -0.74800
O1348       O  0.58656371  0.73085998  0.85615785    -0.74500
C1349       C  0.48334765  0.64084267  0.90797588     0.77200
C1350       C  0.56995086  0.76186375  0.98352406     0.77700
C1351       C  0.60747700  0.68708588  0.93222618     0.91100
C1352       C  0.64753022  0.86149934  0.90737751     0.77100
C1353       C  0.47550650  0.76284600  0.91388359     0.78200
C1354       C  0.58348269  0.75938145  0.84428186     0.77300
Zn1355     Zn  0.16586721  0.36705612  0.90707506     1.49700
Zn1356     Zn  0.25813580  0.40772142  0.93233738     1.49400
Zn1357     Zn  0.23840856  0.45711048  0.88962538     1.49100
Zn1358     Zn  0.20642009  0.44852310  0.94519793     1.49500
O1359       O  0.21586394  0.41820209  0.91827201    -1.84000
O1360       O  0.18480681  0.32124677  0.90362773    -0.74600
O1361       O  0.31480358  0.45714023  0.92292151    -0.74500
O1362       O  0.21630112  0.42841162  0.85596819    -0.74000
O1363       O  0.25211606  0.35595785  0.91514944    -0.74700
O1364       O  0.15565613  0.37294514  0.86831233    -0.74300
O1365       O  0.30120587  0.48835627  0.89058348    -0.74800
O1366       O  0.21952398  0.50600182  0.93490825    -0.74200
O1367       O  0.25400056  0.40269548  0.97229282    -0.75000
O1368       O  0.21974453  0.49945608  0.89201512    -0.74400
O1369       O  0.23087367  0.44674874  0.97914904    -0.74800
O1370       O  0.14647063  0.42134024  0.95216122    -0.74800
O1371       O  0.11307718  0.36214699  0.92950105    -0.74500
C1372       C  0.22124053  0.32431518  0.90463814     0.77200
C1373       C  0.32700066  0.48624993  0.90591563     0.77700
C1374       C  0.18078947  0.39705592  0.85057280     0.76700
C1375       C  0.21608126  0.51752549  0.91215301     0.77100
C1376       C  0.24463224  0.42382680  0.98787344     0.78200
C1377       C  0.11278926  0.38899108  0.94569550     0.77300
Zn1378     Zn  0.23271493  0.45462587  0.69565011     1.49700
Zn1379     Zn  0.18278168  0.41157472  0.64456573     1.49400
Zn1380     Zn  0.26967713  0.42310454  0.65285831     1.49100
Zn1381     Zn  0.19569048  0.35722333  0.68958894     1.49500
O1382       O  0.21840798  0.41023561  0.67090696    -1.84000
O1383       O  0.20682972  0.48823746  0.68582627    -0.74600
O1384       O  0.20886116  0.41776189  0.60918452    -0.74500
O1385       O  0.31014663  0.48414602  0.65518978    -0.74000
O1386       O  0.17315581  0.46027742  0.64903683    -0.74700
O1387       O  0.29432323  0.49675159  0.69484976    -0.74300
O1388       O  0.26379496  0.40956218  0.61429305    -0.74800
O1389       O  0.24984015  0.35259400  0.69990102    -0.74200
O1390       O  0.12895473  0.35752021  0.64476932    -0.75000
O1391       O  0.29834717  0.39960796  0.67292134    -0.74400
O1392       O  0.13936517  0.31347050  0.66902426    -0.74800
O1393       O  0.17541608  0.36308099  0.72565119    -0.74800
O1394       O  0.21127238  0.43201711  0.73135109    -0.74500
C1395       C  0.18560029  0.48833823  0.66656536     0.77200
C1396       C  0.23920573  0.41480625  0.59966203     0.77700
C1397       C  0.31885405  0.50756224  0.67508659     0.76700
C1398       C  0.28842346  0.37469838  0.69220151     0.77100
C1399       C  0.11611122  0.32080323  0.65360646     0.78200
C1400       C  0.18688044  0.39519618  0.74002662     0.77300
Zn1401     Zn  0.17020938  0.77013640  0.67804322     1.49700
Zn1402     Zn  0.16849160  0.70192164  0.64024645     1.49400
Zn1403     Zn  0.24411610  0.79171824  0.63706120     1.49100
Zn1404     Zn  0.22719023  0.73086011  0.68521166     1.49500
O1405       O  0.20343845  0.75078178  0.66026090    -1.84000
O1406       O  0.11217665  0.71471482  0.68659732    -0.74600
O1407       O  0.16468748  0.71538500  0.60309396    -0.74500
O1408       O  0.24529603  0.84602930  0.64181359    -0.74000
O1409       O  0.11437669  0.66948668  0.65894006    -0.74700
O1410       O  0.18131966  0.82574521  0.65785438    -0.74300
O1411       O  0.22562518  0.77519763  0.59981573    -0.74800
O1412       O  0.28758738  0.75554259  0.67701592    -0.74200
O1413       O  0.18865167  0.66124776  0.64100439    -0.75000
O1414       O  0.30127830  0.79826827  0.64311436    -0.74400
O1415       O  0.20052951  0.66780902  0.68343147    -0.74800
O1416       O  0.22405898  0.75091495  0.72092193    -0.74800
O1417       O  0.19317083  0.78847036  0.71443805    -0.74500
C1418       C  0.09750454  0.67694151  0.67831676     0.77200
C1419       C  0.19269671  0.74554036  0.58957135     0.77700
C1420       C  0.21597610  0.85371425  0.64681603     0.76700
C1421       C  0.31299469  0.78140082  0.66021987     0.77100
C1422       C  0.19128703  0.64601655  0.66264730     0.78200
C1423       C  0.21169156  0.77538420  0.72923309     0.77300
Zn1424     Zn  0.20586083  0.80324389  0.92779394     1.49700
Zn1425     Zn  0.27410471  0.80394461  0.89012915     1.49400
Zn1426     Zn  0.24103995  0.74249252  0.93379485     1.49100
Zn1427     Zn  0.18412973  0.73063867  0.88594369     1.49500
O1428       O  0.22413626  0.76955703  0.90958190    -1.84000
O1429       O  0.26155998  0.86155528  0.93597109    -0.74600
O1430       O  0.30979552  0.77764312  0.88899183    -0.74500
O1431       O  0.22370626  0.74672628  0.96961501    -0.74000
O1432       O  0.30800438  0.85443298  0.91176543    -0.74700
O1433       O  0.18903076  0.78098744  0.96469452    -0.74300
O1434       O  0.30244114  0.76354364  0.93121917    -0.74800
O1435       O  0.18226935  0.67442216  0.88771526    -0.74200
O1436       O  0.26174215  0.81331416  0.85325282    -0.75000
O1437       O  0.21560652  0.68288897  0.92513214    -0.74400
O1438       O  0.20018779  0.75454275  0.84972057    -0.74800
O1439       O  0.12873495  0.72675855  0.89304857    -0.74800
O1440       O  0.14951172  0.79102087  0.90850796    -0.74500
C1441       C  0.29980798  0.87258159  0.93007425     0.77200
C1442       C  0.32267830  0.76952767  0.90985647     0.77700
C1443       C  0.20181019  0.76146364  0.97886063     0.76700
C1444       C  0.19604558  0.66074664  0.90562869     0.77100
C1445       C  0.23048600  0.78764527  0.83969772     0.78200
C1446       C  0.12130188  0.75628128  0.89803070     0.77300
Zn1447     Zn  0.18351846  0.08339964  0.84746579     1.49700
Zn1448     Zn  0.27958496  0.13872688  0.84186137     1.49400
Zn1449     Zn  0.22696383  0.06769750  0.79861294     1.49100
Zn1450     Zn  0.21467481  0.14357419  0.80375510     1.49500
O1451       O  0.22815970  0.10762653  0.82288699    -1.84000
O1452       O  0.20284289  0.08111794  0.88297306    -0.74600
O1453       O  0.32344464  0.12511630  0.82236040    -0.74500
O1454       O  0.17370621  0.01043728  0.80331324    -0.74000
O1455       O  0.27186683  0.11332640  0.87805417    -0.74700
O1456       O  0.14567216  0.02544855  0.83725486    -0.74300
O1457       O  0.27931138  0.06503945  0.80244488    -0.74800
O1458       O  0.23302834  0.15054029  0.76644171    -0.74200
O1459       O  0.28218222  0.19694432  0.85148933    -0.75000
O1460       O  0.23196811  0.09007036  0.76224735    -0.74400
O1461       O  0.23682540  0.19610989  0.82317337    -0.74800
O1462       O  0.15344041  0.12380696  0.80555014    -0.74800
O1463       O  0.15006450  0.11211733  0.84793905    -0.74500
C1464       C  0.23892672  0.09317990  0.89210864     0.77200
C1465       C  0.31629158  0.09177548  0.80959989     0.77700
C1466       C  0.14462796  0.99974005  0.82043118     0.76700
C1467       C  0.23633913  0.12377539  0.75255357     0.77100
C1468       C  0.25906774  0.21152981  0.84327858     0.78200
C1469       C  0.13634039  0.12094638  0.82771811     0.77300
Zn1470     Zn  0.27429450  0.10303891  0.59138952     1.49700
Zn1471     Zn  0.22260038  0.12158122  0.54875004     1.49400
Zn1472     Zn  0.20493580  0.03221234  0.55559184     1.49100
Zn1473     Zn  0.17807292  0.06812488  0.59913868     1.49500
O1474       O  0.22163369  0.08332261  0.57386931    -1.84000
O1475       O  0.31871557  0.15964614  0.57152229    -0.74600
O1476       O  0.22776563  0.10336339  0.51289916    -0.74500
O1477       O  0.22406530  0.00054579  0.57667118    -0.74000
O1478       O  0.27465946  0.17622856  0.55262644    -0.74700
O1479       O  0.27634285  0.04759908  0.60095480    -0.74300
O1480       O  0.22294764  0.04128112  0.51757296    -0.74800
O1481       O  0.13917347  0.00569459  0.59999807    -0.74200
O1482       O  0.17076816  0.12670477  0.55155952    -0.75000
O1483       O  0.14307465  0.99426404  0.55803985    -0.74400
O1484       O  0.14347546  0.09236172  0.58887250    -0.74800
O1485       O  0.20105081  0.09075035  0.63415357    -0.74800
O1486       O  0.26989887  0.12236085  0.62757681    -0.74500
C1487       C  0.31159689  0.18597403  0.55915448     0.77200
C1488       C  0.22896756  0.07218011  0.50340080     0.77700
C1489       C  0.24972714  0.00918324  0.59517479     0.76700
C1490       C  0.12469164  0.98211063  0.58013365     0.77100
C1491       C  0.14277003  0.11330810  0.56947780     0.78200
C1492       C  0.23831575  0.11299588  0.64224040     0.77300
Zn1493     Zn  0.91193576  0.79218902  0.85915910     1.49700
Zn1494     Zn  0.86916349  0.69572299  0.85248290     1.49400
Zn1495     Zn  0.84309066  0.74643132  0.81543408     1.49100
Zn1496     Zn  0.93189419  0.76026420  0.81247566     1.49500
O1497       O  0.88641301  0.74762497  0.83522296    -1.84000
O1498       O  0.90466073  0.76900760  0.89528018    -0.74600
O1499       O  0.81131420  0.65113388  0.83456539    -0.74500
O1500       O  0.84270665  0.80063929  0.82178409    -0.74000
O1501       O  0.85619474  0.70185294  0.88986020    -0.74700
O1502       O  0.88505088  0.82697186  0.85596966    -0.74300
O1503       O  0.78803597  0.69461509  0.82436529    -0.74800
O1504       O  0.91158892  0.73404981  0.77797296    -0.74200
O1505       O  0.92546615  0.69401053  0.85815938    -0.75000
O1506       O  0.85373315  0.73865624  0.77750507    -0.74400
O1507       O  0.96884605  0.74539914  0.83149816    -0.74800
O1508       O  0.96907403  0.82166665  0.80732291    -0.74800
O1509       O  0.97292443  0.83094323  0.84992985    -0.74500
C1510       C  0.87889471  0.73289551  0.90452200     0.77200
C1511       C  0.78170681  0.65750654  0.82679289     0.77700
C1512       C  0.86054713  0.82860686  0.83936332     0.76700
C1513       C  0.88026903  0.73134374  0.76607176     0.77100
C1514       C  0.96295694  0.72077710  0.85041101     0.78200
C1515       C  0.98884117  0.84277493  0.82712893     0.77300
Zn1516     Zn  0.90687828  0.73854710  0.56423850     1.49700
Zn1517     Zn  0.83108617  0.68435036  0.60385251     1.49400
Zn1518     Zn  0.88602243  0.78181207  0.61037757     1.49100
Zn1519     Zn  0.83188774  0.75003858  0.56445483     1.49500
O1520       O  0.86495079  0.73689162  0.58613512    -1.84000
O1521       O  0.90983537  0.68685642  0.56978490    -0.74600
O1522       O  0.85076627  0.69075515  0.64089860    -0.74500
O1523       O  0.94622608  0.82030506  0.60283289    -0.74000
O1524       O  0.84701633  0.64073307  0.58640825    -0.74700
O1525       O  0.96190997  0.79161929  0.56969555    -0.74300
O1526       O  0.87970877  0.75967039  0.64656474    -0.74800
O1527       O  0.85526237  0.81177252  0.56292547    -0.74200
O1528       O  0.77289420  0.68229180  0.61106137    -0.75000
O1529       O  0.85991484  0.81781342  0.60574331    -0.74400
O1530       O  0.77949728  0.73200534  0.58360209    -0.74800
O1531       O  0.82694756  0.72939200  0.52790549    -0.74800
O1532       O  0.89026060  0.73699165  0.52709916    -0.74500
C1533       C  0.88262627  0.64928274  0.57592347     0.77200
C1534       C  0.86718129  0.72303181  0.65540493     0.77700
C1535       C  0.97200441  0.82147898  0.58575305     0.76700
C1536       C  0.85608518  0.83119570  0.58364521     0.77100
C1537       C  0.76185953  0.70847121  0.60323637     0.78200
C1538       C  0.85766666  0.73127887  0.51527929     0.77300
Zn1539     Zn  0.89705540  0.07019643  0.86211384     1.49700
Zn1540     Zn  0.91098658  0.12539183  0.81165907     1.49400
Zn1541     Zn  0.83322910  0.04024921  0.81929917     1.49100
Zn1542     Zn  0.84428508  0.11390598  0.85754784     1.49500
O1543       O  0.87211964  0.08977242  0.83770659    -1.84000
O1544       O  0.95739779  0.09736211  0.85413487    -0.74600
O1545       O  0.89291091  0.09933920  0.77587359    -0.74500
O1546       O  0.85238897  0.99840739  0.81881564    -0.74000
O1547       O  0.96912644  0.13599430  0.81857026    -0.74700
O1548       O  0.87617487  0.00856430  0.85912100    -0.74300
O1549       O  0.82607468  0.05027279  0.78138610    -0.74800
O1550       O  0.78527386  0.06080753  0.86807181    -0.74200
O1551       O  0.91042682  0.17885947  0.81132243    -0.75000
O1552       O  0.78238582  0.01123950  0.84161590    -0.74400
O1553       O  0.85721117  0.17011867  0.83688344    -0.74800
O1554       O  0.87033984  0.13178651  0.89394586    -0.74800
O1555       O  0.89167937  0.08594635  0.89846822    -0.74500
C1556       C  0.98206023  0.12170353  0.83655325     0.77200
C1557       C  0.85770826  0.07203280  0.76656338     0.77700
C1558       C  0.86350452  0.98607242  0.83869185     0.76700
C1559       C  0.76915381  0.02202647  0.86146454     0.77100
C1560       C  0.88712950  0.19226813  0.82030616     0.78200
C1561       C  0.88451482  0.11342967  0.90812402     0.77300
Zn1562     Zn  0.89968890  0.07282077  0.55565476     1.49700
Zn1563     Zn  0.87820265  0.13994886  0.57558353     1.49400
Zn1564     Zn  0.82989735  0.04648604  0.59911926     1.49100
Zn1565     Zn  0.91994384  0.09647720  0.61066538     1.49500
O1566       O  0.88086607  0.09068218  0.58491454    -1.84000
O1567       O  0.88697781  0.09161641  0.52279140    -0.74600
O1568       O  0.81234000  0.11866027  0.57481355    -0.74500
O1569       O  0.82992756  0.99289951  0.59111359    -0.74000
O1570       O  0.89241490  0.15165790  0.53614763    -0.74700
O1571       O  0.87603954  0.01093003  0.55827872    -0.74300
O1572       O  0.78293485  0.04977071  0.58181716    -0.74800
O1573       O  0.89459054  0.06913205  0.64469395    -0.74200
O1574       O  0.92695330  0.19112552  0.59855435    -0.75000
O1575       O  0.82870204  0.05207463  0.63889926    -0.74400
O1576       O  0.95182743  0.15521071  0.61887662    -0.74800
O1577       O  0.96449165  0.08541318  0.59795154    -0.74800
O1578       O  0.96213954  0.09941115  0.55636245    -0.74500
C1579       C  0.89025836  0.12687745  0.51794001     0.77200
C1580       C  0.78015508  0.08107111  0.57398208     0.77700
C1581       C  0.85031745  0.98398272  0.57454537     0.76700
C1582       C  0.85864480  0.05881333  0.65404810     0.77100
C1583       C  0.95388727  0.18966773  0.61391831     0.78200
C1584       C  0.98223675  0.09756850  0.57575395     0.77300
C1585       C  0.86740579  0.13546607  0.95078038    -0.26200
C1586       C  0.89182180  0.12261708  0.93653455    -0.14300
C1587       C  0.92090331  0.11563895  0.95026286     0.36300
C1588       C  0.92210376  0.11784616  0.97739633    -0.25700
C1589       C  0.89522729  0.12695624  0.99172816    -0.14900
C1590       C  0.86887213  0.13775324  0.97835751     0.37400
N1591       N  0.82273726  0.13114010  0.49222801    -0.89100
H1592       H  0.84557075  0.14158564  0.94053529     0.18500
H1593       H  0.94316617  0.11044199  0.98754000     0.18500
N1594       N  0.94973603  0.10611593  0.93741041    -0.88200
H1595       H  0.79913369  0.12813793  0.47980458     0.35900
H1596       H  0.83295563  0.15900988  0.50252389     0.41000
H1597       H  0.96599650  0.12858382  0.92289780     0.40600
H1598       H  0.93344081  0.07633787  0.92915182     0.35500
C1599       C  0.88439796  0.05495886  0.69792195    -0.26200
C1600       C  0.85366439  0.05689701  0.68303334    -0.14300
C1601       C  0.82208820  0.06116431  0.69617179     0.36300
C1602       C  0.82263701  0.06416131  0.72368196    -0.25700
C1603       C  0.85482582  0.06450753  0.73811113    -0.14900
C1604       C  0.88544084  0.05891179  0.72514998     0.37400
N1605       N  0.91766545  0.05740839  0.73976006    -0.89100
H1606       H  0.90849017  0.05120747  0.68822911     0.18500
H1607       H  0.79908748  0.06830425  0.73379038     0.18500
N1608       N  0.79065613  0.06415119  0.68166858    -0.88200
H1609       H  0.93807691  0.05357162  0.72730903     0.35900
H1610       H  0.90316167  0.03080842  0.75171651     0.41000
H1611       H  0.80567503  0.09233007  0.67120849     0.40600
H1612       H  0.76935854  0.06616821  0.69431925     0.35500
C1613       C  0.85002158  0.88405735  0.55688124    -0.26200
C1614       C  0.85216741  0.86918722  0.58177286    -0.14300
C1615       C  0.85074490  0.89106418  0.60414046     0.36300
C1616       C  0.84827115  0.92743520  0.60096957    -0.25700
C1617       C  0.84745486  0.94279412  0.57611942    -0.14900
C1618       C  0.84808805  0.92059098  0.55382735     0.37400
N1619       N  0.84613318  0.93388775  0.52789288    -0.89100
H1620       H  0.85056225  0.86762293  0.53947606     0.18500
H1621       H  0.84831675  0.94472809  0.61809685     0.18500
N1622       N  0.85250020  0.87698118  0.62999096    -0.88200
H1623       H  0.87294014  0.96279793  0.52415762     0.35900
H1624       H  0.81977729  0.93725147  0.52666927     0.41000
H1625       H  0.82437210  0.84905668  0.63341247     0.40600
H1626       H  0.85381030  0.89814953  0.64404301     0.35500
C1627       C  0.85543805  0.88422849  0.81579022    -0.26200
C1628       C  0.85566663  0.86582597  0.83963173    -0.14300
C1629       C  0.85724877  0.88644416  0.86319448     0.36300
C1630       C  0.85991633  0.92564037  0.86232999    -0.25700
C1631       C  0.86073779  0.94466001  0.83844360    -0.14900
C1632       C  0.85846445  0.92355871  0.81495462     0.37400
N1633       N  0.86106718  0.94261468  0.79015776    -0.89100
H1634       H  0.85517180  0.86906670  0.79760113     0.18500
H1635       H  0.86138350  0.94137446  0.88048591     0.18500
N1636       N  0.85644287  0.86763700  0.88790012    -0.88200
H1637       H  0.83425799  0.92254644  0.77963489     0.35900
H1638       H  0.88706021  0.94545042  0.77998612     0.41000
H1639       H  0.82741381  0.84009951  0.88970381     0.40600
H1640       H  0.85819049  0.88700363  0.90331972     0.35500
C1641       C  0.83647436  0.70478114  0.94505350    -0.26200
C1642       C  0.87592314  0.72716015  0.93293819    -0.14300
C1643       C  0.91241493  0.74508584  0.94815692     0.36300
C1644       C  0.90854141  0.74297459  0.97539527    -0.25700
C1645       C  0.86896938  0.72334834  0.98764159    -0.14900
C1646       C  0.83269613  0.70290588  0.97232934     0.37400
N1647       N  0.79206427  0.68037338  0.98436425    -0.89100
H1648       H  0.80844183  0.69008427  0.93334432     0.18500
H1649       H  0.93659326  0.75820265  0.98706863     0.18500
N1650       N  0.95317490  0.76561702  0.93587062    -0.88200
H1651       H  0.77767473  0.64932748  0.97801180     0.35900
H1652       H  0.79130164  0.74441634  0.49130745     0.41000
H1653       H  0.95620104  0.74299575  0.92534473     0.40600
H1654       H  0.97671670  0.77732361  0.94988163     0.35500
C1655       C  0.91272901  0.73971177  0.72250360    -0.26200
C1656       C  0.87620237  0.72217843  0.73798118    -0.14300
C1657       C  0.83677712  0.69960451  0.72606018     0.36300
C1658       C  0.83447071  0.69756630  0.69875331    -0.25700
C1659       C  0.87096906  0.71832968  0.68338655    -0.14900
C1660       C  0.91045420  0.73850700  0.69535643     0.37400
N1661       N  0.94863062  0.75852333  0.68038274    -0.89100
H1662       H  0.94323195  0.75668283  0.73148978     0.18500
H1663       H  0.80407641  0.68168121  0.68956044     0.18500
N1664       N  0.79919434  0.67920308  0.74158493    -0.88200
H1665       H  0.94941600  0.78255556  0.66926062     0.35900
H1666       H  0.94880254  0.73640438  0.66770592     0.41000
H1667       H  0.78346165  0.64729970  0.73707009     0.40600
H1668       H  0.78011264  0.69124975  0.73625046     0.35500
C1669       C  0.03944312  0.09937397  0.54894228    -0.26200
C1670       C  0.02637622  0.10902958  0.57248091    -0.14300
C1671       C  0.05564733  0.12852044  0.59274845     0.36300
C1672       C  0.09533014  0.13324520  0.59024372    -0.25700
C1673       C  0.10683190  0.11957940  0.56782296    -0.14900
C1674       C  0.07950259  0.10414878  0.54647371     0.37400
N1675       N  0.09147166  0.09097817  0.52311303    -0.89100
H1676       H  0.01752006  0.08562868  0.53307320     0.18500
H1677       H  0.11668661  0.14577778  0.60649825     0.18500
N1678       N  0.04625572  0.14405084  0.61598795    -0.88200
H1679       H  0.06787037  0.08078333  0.50919551     0.35900
H1680       H  0.09430003  0.06503964  0.52786552     0.41000
H1681       H  0.02302039  0.11905696  0.62678824     0.40600
H1682       H  0.03555842  0.16429302  0.61065073     0.35500
C1683       C  0.07087983  0.91585467  0.55966285    -0.26200
C1684       C  0.08661860  0.93996085  0.58244437    -0.14300
C1685       C  0.06573941  0.92269774  0.60657127     0.36300
C1686       C  0.02986530  0.88310099  0.60710615    -0.25700
C1687       C  0.01362102  0.85972692  0.58424432    -0.14900
C1688       C  0.03481380  0.87632396  0.56024786     0.37400
N1689       N  0.01962381  0.85488738  0.53596849    -0.89100
H1690       H  0.08618639  0.92803376  0.54095655     0.18500
H1691       H  0.01393605  0.87084997  0.62566163     0.18500
N1692       N  0.07952471  0.94431947  0.63090186    -0.88200
H1693       H  0.98916070  0.84901510  0.53321755     0.35900
H1694       H  0.01932726  0.82650510  0.53676250     0.41000
H1695       H  0.07880878  0.97217891  0.62991918     0.40600
H1696       H  0.10998757  0.95072918  0.63438851     0.35500
C1697       C  0.05062807  0.90264920  0.84700537    -0.26200
C1698       C  0.03066729  0.88107693  0.82421680    -0.14300
C1699       C  0.05118690  0.89661367  0.79974323     0.36300
C1700       C  0.08977918  0.93463360  0.79877248    -0.25700
C1701       C  0.10816555  0.95692615  0.82165236    -0.14900
C1702       C  0.08887858  0.93993675  0.84597685     0.37400
N1703       N  0.10799796  0.96069378  0.86988077    -0.89100
H1704       H  0.03632040  0.89095234  0.86600727     0.18500
H1705       H  0.10475855  0.94759432  0.78009649     0.18500
N1706       N  0.03273689  0.87446190  0.77600256    -0.88200
H1707       H  0.08719768  0.96738359  0.87980381     0.35900
H1708       H  0.11254992  0.94004195  0.88138994     0.41000
H1709       H  0.03321441  0.84644549  0.77656051     0.40600
H1710       H  0.05101449  0.89113976  0.75981868     0.35500
C1711       C  0.20899216  0.04835482  0.93142568    -0.26200
C1712       C  0.24170058  0.08504349  0.92001303    -0.14300
C1713       C  0.27242818  0.11613497  0.93610898     0.36300
C1714       C  0.26764369  0.11149622  0.96333741    -0.25700
C1715       C  0.23370477  0.07591671  0.97465302    -0.14900
C1716       C  0.20477048  0.04337890  0.95865595     0.37400
N1717       N  0.17006091  0.00655114  0.97008481    -0.89100
H1718       H  0.18553372  0.02436899  0.91905219     0.18500
H1719       H  0.28990828  0.13621808  0.97585479     0.18500
N1720       N  0.30671914  0.15348579  0.92489388    -0.88200
H1721       H  0.15173915  0.98558018  0.95555987     0.35900
H1722       H  0.15098004  0.01574844  0.97978444     0.41000
H1723       H  0.32602552  0.14475723  0.91502796     0.40600
H1724       H  0.32503283  0.17418673  0.93953555     0.35500
C1725       C  0.27329915  0.12034055  0.68433999    -0.26200
C1726       C  0.24452247  0.12577888  0.66976403    -0.14300
C1727       C  0.21814975  0.13769551  0.68243405     0.36300
C1728       C  0.21851993  0.14065479  0.70969092    -0.25700
C1729       C  0.24407462  0.13073828  0.72437941    -0.14900
C1730       C  0.27307963  0.12236101  0.71168426     0.37400
N1731       N  0.30098097  0.11440904  0.72670158    -0.89100
H1732       H  0.29387953  0.11159551  0.67454000     0.18500
H1733       H  0.19665158  0.14773706  0.71942814     0.18500
N1734       N  0.19012924  0.14557722  0.66769739    -0.88200
H1735       H  0.32086945  0.14182192  0.73685043     0.35900
H1736       H  0.32004678  0.10833267  0.71440709     0.41000
H1737       H  0.19690100  0.17609279  0.67169260     0.40600
H1738       H  0.15958779  0.12496898  0.67424310     0.35500
C1739       C  0.04852392  0.14260140  0.81254834    -0.26200
C1740       C  0.02563328  0.13026527  0.83609239    -0.14300
C1741       C  0.04240660  0.12043474  0.85781661     0.36300
C1742       C  0.07906325  0.11862291  0.85461613    -0.25700
C1743       C  0.09998439  0.12722824  0.83039351    -0.14900
C1744       C  0.08554257  0.14129075  0.80952702     0.37400
N1745       N  0.10782340  0.15367439  0.78511414    -0.89100
H1746       H  0.03659870  0.15118746  0.79589547     0.18500
H1747       H  0.09066635  0.10935719  0.87110736     0.18500
N1748       N  0.02166977  0.11127611  0.88289270    -0.88200
H1749       H  0.11599745  0.18468599  0.78136734     0.35900
H1750       H  0.08758604  0.13489150  0.77044863     0.41000
H1751       H  0.02281626  0.13861330  0.88944146     0.40600
H1752       H  0.03768917  0.10384286  0.89660067     0.35500
C1753       C  0.04398939  0.70799812  0.89052628    -0.26200
C1754       C  0.07918288  0.74905163  0.88965850    -0.14300
C1755       C  0.07479219  0.78035794  0.87690488     0.36300
C1756       C  0.03670171  0.76969323  0.86450205    -0.25700
C1757       C  0.00179183  0.72841358  0.86468118    -0.14900
C1758       C  0.00556709  0.69763631  0.87871783     0.37400
N1759       N  0.97160282  0.65536894  0.88061585    -0.89100
H1760       H  0.04660940  0.68334157  0.90011294     0.18500
H1761       H  0.03436770  0.79423212  0.85452693     0.18500
N1762       N  0.10964444  0.82246441  0.87530510    -0.88200
H1763       H  0.96234291  0.64379491  0.86174207     0.35900
H1764       H  0.94656842  0.65541501  0.89024953     0.41000
H1765       H  0.11525027  0.83482279  0.89416767     0.40600
H1766       H  0.10203342  0.84128804  0.86414719     0.35500
C1767       C  0.26523370  0.92996439  0.63563423    -0.26200
C1768       C  0.22357200  0.89588419  0.63787033    -0.14300
C1769       C  0.19137971  0.90141755  0.62794439     0.36300
C1770       C  0.20125793  0.93892485  0.61490580    -0.25700
C1771       C  0.24298213  0.97223064  0.61145075    -0.14900
C1772       C  0.27516896  0.96812035  0.62297608     0.37400
N1773       N  0.31784812  0.00159202  0.62078967    -0.89100
H1774       H  0.29046806  0.92645065  0.64331068     0.18500
H1775       H  0.17568831  0.94165939  0.60696782     0.18500
N1776       N  0.14864891  0.86834796  0.62985669    -0.88200
H1777       H  0.33789563  0.99299956  0.62944825     0.35900
H1778       H  0.32046485  0.02679277  0.63160598     0.41000
H1779       H  0.13683502  0.86034564  0.61096252     0.40600
H1780       H  0.13169158  0.87990045  0.63973040     0.35500
C1781       C  0.25758645  0.79952702  0.76778377    -0.26200
C1782       C  0.21849073  0.78760913  0.75692564    -0.14300
C1783       C  0.18511972  0.78195655  0.77330658     0.36300
C1784       C  0.19071354  0.78504286  0.80048273    -0.25700
C1785       C  0.22915725  0.79450212  0.81144597    -0.14900
C1786       C  0.26338863  0.80345061  0.79477456     0.37400
N1787       N  0.30350677  0.81371174  0.80469840    -0.89100
H1788       H  0.28336484  0.80407713  0.75522918     0.18500
H1789       H  0.16444282  0.77824936  0.81325538     0.18500
N1790       N  0.14489693  0.76990226  0.76249483    -0.88200
H1791       H  0.29980326  0.78948521  0.81696506     0.35900
H1792       H  0.31516648  0.84124880  0.81555517     0.41000
H1793       H  0.14814626  0.79526551  0.75161784     0.40600
H1794       H  0.12314468  0.76467596  0.77735806     0.35500
C1795       C  0.18422193  0.71675643  0.51840206    -0.26200
C1796       C  0.18902801  0.75316127  0.50657685    -0.14300
C1797       C  0.19107631  0.78557314  0.52227529     0.36300
C1798       C  0.19046272  0.78163929  0.54957746    -0.25700
C1799       C  0.18761618  0.74601593  0.56124643    -0.14900
C1800       C  0.18352221  0.71287607  0.54548118     0.37400
N1801       N  0.18125627  0.67612299  0.55638505    -0.89100
H1802       H  0.18277604  0.69180833  0.50647360     0.18500
H1803       H  0.19358389  0.80698524  0.56182146     0.18500
N1804       N  0.19598126  0.82312892  0.51057341    -0.88200
H1805       H  0.15457592  0.66102102  0.56829685     0.35900
H1806       H  0.20770198  0.68526600  0.56785480     0.41000
H1807       H  0.24597531  0.84150668  0.00129554     0.40600
H1808       H  0.19638366  0.84348327  0.52490862     0.35500
C1809       C  0.18711251  0.58431772  0.64018452    -0.26200
C1810       C  0.18376120  0.60271841  0.66344438    -0.14300
C1811       C  0.17380331  0.57961773  0.68699968     0.36300
C1812       C  0.17182145  0.54071693  0.68715937    -0.25700
C1813       C  0.17824306  0.52381051  0.66421503    -0.14900
C1814       C  0.18450913  0.54530256  0.64030947     0.37400
N1815       N  0.19106188  0.52974274  0.61613758    -0.89100
H1816       H  0.19370917  0.60114657  0.62183785     0.18500
H1817       H  0.16638661  0.52396175  0.70545187     0.18500
N1818       N  0.16610619  0.59575446  0.71067654    -0.88200
H1819       H  0.16449518  0.50082092  0.61226219     0.35900
H1820       H  0.21690486  0.52565986  0.61797456     0.41000
H1821       H  0.13894191  0.59733105  0.70799787     0.40600
H1822       H  0.15980547  0.57507644  0.72624227     0.35500
C1823       C  0.00818404  0.21979219  0.64892113    -0.26200
C1824       C  0.99093816  0.22691068  0.62622226    -0.14300
C1825       C  0.01461583  0.26573266  0.61353070     0.36300
C1826       C  0.05473771  0.29539406  0.62292736    -0.25700
C1827       C  0.07289717  0.28740674  0.64487797    -0.14900
C1828       C  0.04846734  0.24911720  0.65822772     0.37400
N1829       N  0.06450585  0.23975903  0.68106371    -0.89100
H1830       H  0.99054159  0.19013376  0.65910945     0.18500
H1831       H  0.07229928  0.32465929  0.61233506     0.18500
N1832       N  0.99910879  0.27455739  0.59037878    -0.88200
H1833       H  0.04313868  0.20990244  0.68822703     0.35900
H1834       H  0.06740749  0.26094028  0.69558745     0.41000
H1835       H  0.02060186  0.28051324  0.57522221     0.40600
H1836       H  0.99788343  0.30185442  0.59357834     0.35500
C1837       C  0.27371752  0.26140995  0.88171461    -0.26200
C1838       C  0.25224705  0.24312470  0.85844759    -0.14300
C1839       C  0.21928794  0.25080107  0.85163548     0.36300
C1840       C  0.20790784  0.27407239  0.86813771    -0.25700
C1841       C  0.22980335  0.29307220  0.89090506    -0.14900
C1842       C  0.26349822  0.28680172  0.89751328     0.37400
N1843       N  0.28721865  0.30567710  0.92052334    -0.89100
H1844       H  0.29851526  0.25594442  0.88781042     0.18500
H1845       H  0.18233913  0.27851730  0.86243139     0.18500
N1846       N  0.19668532  0.23509509  0.82782119    -0.88200
H1847       H  0.31860137  0.32468479  0.91493837     0.35900
H1848       H  0.28505993  0.28184765  0.93254795     0.41000
H1849       H  0.20039189  0.26053238  0.81679580     0.40600
H1850       H  0.16489404  0.21630687  0.83248625     0.35500
C1851       C  0.24355199  0.45218700  0.53072350    -0.26200
C1852       C  0.25078146  0.42427362  0.51592302    -0.14300
C1853       C  0.25865066  0.39539900  0.52923792     0.36300
C1854       C  0.25689696  0.39392249  0.55683092    -0.25700
C1855       C  0.24639960  0.41984256  0.57113712    -0.14900
C1856       C  0.24113266  0.45022596  0.55794670     0.37400
N1857       N  0.23298088  0.47893197  0.57231601    -0.89100
H1858       H  0.23862876  0.47533115  0.52103791     0.18500
H1859       H  0.26164326  0.37110531  0.56711564     0.18500
N1860       N  0.25275694  0.35730495  0.01517040    -0.88200
H1861       H  0.22920007  0.49894177  0.55970364     0.35900
H1862       H  0.25940203  0.49784168  0.58348874     0.41000
H1863       H  0.22469604  0.33982986  0.00513976     0.40600
H1864       H  0.25514723  0.33638687  0.02774199     0.35500
C1865       C  0.16961381  0.42186556  0.80856546    -0.26200
C1866       C  0.16970490  0.38961377  0.82279497    -0.14300
C1867       C  0.16779584  0.35534745  0.80937428     0.36300
C1868       C  0.16941825  0.35568867  0.78203260    -0.25700
C1869       C  0.17374594  0.39014672  0.76783275    -0.14900
C1870       C  0.17116617  0.42229642  0.78117608     0.37400
N1871       N  0.17180147  0.45606272  0.76690476    -0.89100
H1872       H  0.17067046  0.44797621  0.81892262     0.18500
H1873       H  0.17089118  0.33060220  0.77202277     0.18500
N1874       N  0.16792696  0.32171544  0.82302297    -0.88200
H1875       H  0.17005135  0.47726033  0.77965374     0.35900
H1876       H  0.14478853  0.44322920  0.75558112     0.41000
H1877       H  0.14186670  0.30796133  0.83556325     0.40600
H1878       H  0.19499975  0.33432344  0.83424680     0.35500
C1879       C  0.21831820  0.57563560  0.88605025    -0.26200
C1880       C  0.20657906  0.55165441  0.90913509    -0.14300
C1881       C  0.18506333  0.56010494  0.92895158     0.36300
C1882       C  0.17846609  0.59392828  0.92621676    -0.25700
C1883       C  0.19251003  0.61946144  0.90394466    -0.14900
C1884       C  0.21198097  0.60992279  0.88338810     0.37400
N1885       N  0.22733376  0.63638126  0.86063526    -0.89100
H1886       H  0.23421651  0.56886039  0.87057427     0.18500
H1887       H  0.16383133  0.60142832  0.94214547     0.18500
N1888       N  0.16984641  0.53449848  0.95195098    -0.88200
H1889       H  0.24064076  0.62484145  0.84730370     0.35900
H1890       H  0.25150028  0.66572672  0.86651514     0.41000
H1891       H  0.13744784  0.52201417  0.95320148     0.40600
H1892       H  0.18338087  0.55365063  0.96818759     0.35500
C1893       C  0.37054399  0.75147676  0.93220495    -0.26200
C1894       C  0.36147613  0.76711105  0.90978943    -0.14300
C1895       C  0.39011542  0.78100148  0.88846890     0.36300
C1896       C  0.42760500  0.78031791  0.89060460    -0.25700
C1897       C  0.43658369  0.76485176  0.91311477    -0.14900
C1898       C  0.40741974  0.75000358  0.93402591     0.37400
N1899       N  0.41520628  0.73392431  0.95740025    -0.89100
H1900       H  0.34889205  0.74023698  0.94865377     0.18500
H1901       H  0.44949258  0.79102768  0.87428468     0.18500
N1902       N  0.38147156  0.79598349  0.86481617    -0.88200
H1903       H  0.41479414  0.75177617  0.97313786     0.35900
H1904       H  0.39069900  0.70314797  0.96012181     0.41000
H1905       H  0.35669939  0.77024586  0.85566364     0.40600
H1906       H  0.40690537  0.80726317  0.85181943     0.35500
C1907       C  0.72207181  0.92125649  0.90122716    -0.26200
C1908       C  0.67897142  0.90660959  0.90033481    -0.14300
C1909       C  0.66632168  0.93446669  0.89009864     0.36300
C1910       C  0.69609279  0.97374078  0.87925932    -0.25700
C1911       C  0.73871091  0.98669139  0.87860861    -0.14900
C1912       C  0.75163019  0.96057037  0.89052122     0.37400
N1913       N  0.79513022  0.97327196  0.89082135    -0.89100
H1914       H  0.73298988  0.90134392  0.90911920     0.18500
H1915       H  0.68550261  0.99314635  0.87017586     0.18500
N1916       N  0.62304228  0.92279188  0.88992303    -0.88200
H1917       H  0.79866399  0.95022624  0.88126906     0.35900
H1918       H  0.80388812  0.97420927  0.91025170     0.41000
H1919       H  0.61448954  0.92316474  0.87058439     0.40600
H1920       H  0.61977066  0.94542161  0.90025309     0.35500
C1921       C  0.43422778  0.57144331  0.92750185    -0.26200
C1922       C  0.44761775  0.59768313  0.90545172    -0.14300
C1923       C  0.42447305  0.58353363  0.88229067     0.36300
C1924       C  0.38664932  0.54522640  0.88226256    -0.25700
C1925       C  0.37140130  0.52046403  0.90496402    -0.14900
C1926       C  0.39660855  0.53282212  0.92750294     0.37400
N1927       N  0.38287286  0.50765037  0.95083859    -0.89100
H1928       H  0.45257291  0.58174771  0.94515004     0.18500
H1929       H  0.36808638  0.53587152  0.86469063     0.18500
N1930       N  0.43781831  0.60899535  0.85920380    -0.88200
H1931       H  0.40382339  0.52263496  0.96604971     0.35900
H1932       H  0.38369449  0.48030311  0.94696506     0.41000
H1933       H  0.41421589  0.61520279  0.85400433     0.40600
H1934       H  0.44120669  0.59172943  0.84416584     0.35500
C1935       C  0.39378972  0.55056613  0.66280189    -0.26200
C1936       C  0.35839746  0.54790028  0.67505643    -0.14300
C1937       C  0.36107757  0.58374085  0.68660882     0.36300
C1938       C  0.39942803  0.62144826  0.68601057    -0.25700
C1939       C  0.43514267  0.62433800  0.67384288    -0.14900
C1940       C  0.43228811  0.58826228  0.66225922     0.37400
N1941       N  0.46830053  0.58975969  0.65016726    -0.89100
H1942       H  0.39153942  0.52285106  0.65396828     0.18500
H1943       H  0.40101126  0.64901556  0.69458013     0.18500
N1944       N  0.32464836  0.58204761  0.69823424    -0.88200
H1945       H  0.46046470  0.56073412  0.64210745     0.35900
H1946       H  0.48989103  0.59544304  0.66487318     0.41000
H1947       H  0.30312888  0.57573384  0.68336954     0.40600
H1948       H  0.33206051  0.61115817  0.70596595     0.35500
C1949       C  0.74197626  0.76018718  0.61859642    -0.26200
C1950       C  0.73255646  0.71802309  0.61842988    -0.14300
C1951       C  0.69710617  0.68843366  0.63266753     0.36300
C1952       C  0.67077219  0.70115856  0.64509580    -0.25700
C1953       C  0.67933907  0.74313940  0.64411461    -0.14900
C1954       C  0.71638094  0.77295334  0.63115686     0.37400
N1955       N  0.72812867  0.81617873  0.62931423    -0.89100
H1956       H  0.76970631  0.78394436  0.60848311     0.18500
H1957       H  0.64264844  0.67778674  0.65507692     0.18500
N1958       N  0.68725686  0.64560730  0.63390375    -0.88200
H1959       H  0.73215858  0.82839263  0.64818063     0.35900
H1960       H  0.70413220  0.81832166  0.62022835     0.41000
H1961       H  0.68044155  0.63351493  0.61499560     0.40600
H1962       H  0.66016994  0.62776982  0.64518261     0.35500
C1963       C  0.57558938  0.72796083  0.80071691    -0.26200
C1964       C  0.59065966  0.76418558  0.81597820    -0.14300
C1965       C  0.60750278  0.80364104  0.80379391     0.36300
C1966       C  0.60643465  0.80596965  0.77659419    -0.25700
C1967       C  0.58827992  0.76942398  0.76162236    -0.14900
C1968       C  0.57384749  0.73020423  0.77350608     0.37400
N1969       N  0.55608622  0.69284919  0.75795461    -0.89100
H1970       H  0.56275032  0.69763755  0.81011017     0.18500
H1971       H  0.61786438  0.83616171  0.76725926     0.18500
N1972       N  0.62496139  0.84118868  0.81899926    -0.88200
H1973       H  0.54641820  0.66645823  0.76978217     0.35900
H1974       H  0.57985153  0.69481455  0.74572445     0.41000
H1975       H  0.60848662  0.85659607  0.81490738     0.40600
H1976       H  0.65605080  0.86057643  0.81295892     0.35500
C1977       C  0.53917265  0.72916052  0.52567349    -0.26200
C1978       C  0.56626096  0.76572873  0.51163317    -0.14300
C1979       C  0.59163448  0.80336959  0.52517118     0.36300
C1980       C  0.58869235  0.80357423  0.55251650    -0.25700
C1981       C  0.56180304  0.76683761  0.56645606    -0.14900
C1982       C  0.53654959  0.72925643  0.55289756     0.37400
N1983       N  0.50766469  0.69156871  0.56672449    -0.89100
H1984       H  0.51976280  0.70019628  0.51531168     0.18500
H1985       H  0.60794516  0.83239377  0.56304287     0.18500
N1986       N  0.61141488  0.84144659  0.01189748    -0.88200
H1987       H  0.49184808  0.66663750  0.55378837     0.35900
H1988       H  0.48495032  0.69663846  0.57551820     0.41000
H1989       H  0.62414334  0.86650274  0.02497868     0.40600
H1990       H  0.58948808  0.84452194  0.00087479     0.35500
C1991       C  0.41810903  0.79505447  0.64050767    -0.26200
C1992       C  0.43389946  0.79313867  0.66504371    -0.14300
C1993       C  0.41214121  0.79332749  0.68780917     0.36300
C1994       C  0.37382336  0.79194592  0.68559032    -0.25700
C1995       C  0.35676209  0.79095498  0.66109322    -0.14900
C1996       C  0.37980967  0.79408245  0.63827607     0.37400
N1997       N  0.36314455  0.79350842  0.61296430    -0.89100
H1998       H  0.43492794  0.79588346  0.62286195     0.18500
H1999       H  0.35662605  0.79037249  0.70324737     0.18500
N2000       N  0.42809943  0.79392926  0.71325675    -0.88200
H2001       H  0.38286497  0.79335326  0.59823192     0.35900
H2002       H  0.36308412  0.82157796  0.61078835     0.41000
H2003       H  0.40587354  0.76730819  0.72344050     0.40600
H2004       H  0.43163631  0.82030793  0.72310105     0.35500
C2005       C  0.93708943  0.63027862  0.56298629    -0.26200
C2006       C  0.89446485  0.61658151  0.56904616    -0.14300
C2007       C  0.86515597  0.57364479  0.56528517     0.36300
C2008       C  0.87829787  0.54719596  0.55410828    -0.25700
C2009       C  0.92017286  0.56177103  0.54617004    -0.14900
C2010       C  0.95017427  0.60385446  0.55150857     0.37400
N2011       N  0.99365044  0.62145341  0.54465108    -0.89100
H2012       H  0.96073726  0.66271187  0.56612027     0.18500
H2013       H  0.85494623  0.51494689  0.55029917     0.18500
N2014       N  0.82159671  0.55621399  0.57135256    -0.88200
H2015       H  0.00091564  0.64431606  0.53028011     0.35900
H2016       H  0.99957158  0.59914466  0.53646600     0.41000
H2017       H  0.81000971  0.57187346  0.56031701     0.40600
H2018       H  0.81846195  0.56087084  0.59115503     0.35500
C2019       C  0.04326345  0.40802594  0.99255575    -0.26200
C2020       C  0.01762077  0.41403956  0.97523961    -0.14300
C2021       C  0.01913987  0.40471209  0.94850001     0.36300
C2022       C  0.04714781  0.39173413  0.93948775    -0.25700
C2023       C  0.07400814  0.38721447  0.95660550    -0.14900
C2024       C  0.07101269  0.39474999  0.98364606     0.37400
N2025       N  0.09565234  0.38874757  0.00266062    -0.89100
H2026       H  0.04481445  0.41720891  0.51389009     0.18500
H2027       H  0.04961977  0.38764359  0.91871748     0.18500
N2028       N  0.99303973  0.40973559  0.93014774    -0.88200
H2029       H  0.13182997  0.41668567  0.49926109     0.35900
H2030       H  0.09012627  0.35820401  0.00086048     0.41000
H2031       H  0.97450600  0.38099285  0.92092843     0.40600
H2032       H  0.01234963  0.43142457  0.91597832     0.35500
C2033       C  0.92880312  0.29254880  0.77828390    -0.26200
C2034       C  0.91686558  0.31682429  0.79297830    -0.14300
C2035       C  0.89602943  0.30041072  0.81738595     0.36300
C2036       C  0.88612576  0.25991361  0.82576109    -0.25700
C2037       C  0.89659077  0.23484126  0.81058043    -0.14900
C2038       C  0.91861923  0.25189227  0.78650925     0.37400
N2039       N  0.92927306  0.22726584  0.76978857    -0.89100
H2040       H  0.94358053  0.30410854  0.75937596     0.18500
H2041       H  0.87016490  0.24792016  0.84431406     0.18500
N2042       N  0.88395372  0.32469491  0.83339306    -0.88200
H2043       H  0.94574062  0.24430340  0.75320383     0.35900
H2044       H  0.90127225  0.20190145  0.76318904     0.41000
H2045       H  0.91133668  0.35156728  0.83921846     0.40600
H2046       H  0.86860780  0.30835445  0.85042000     0.35500
C2047       C  0.06376658  0.63973161  0.72062734    -0.26200
C2048       C  0.06418948  0.63932795  0.69307714    -0.14300
C2049       C  0.03841126  0.60019458  0.68056481     0.36300
C2050       C  0.01469939  0.56348827  0.69541820    -0.25700
C2051       C  0.01535554  0.56374740  0.72278274    -0.14900
C2052       C  0.03950745  0.60255820  0.73551296     0.37400
N2053       N  0.03963400  0.60400762  0.76353440    -0.89100
H2054       H  0.08373177  0.66887933  0.73064447     0.18500
H2055       H  0.99460308  0.53439906  0.68538584     0.18500
N2056       N  0.03454923  0.59659760  0.65273801    -0.88200
H2057       H  0.05890821  0.63470084  0.76998559     0.35900
H2058       H  0.05291277  0.58661323  0.77015308     0.41000
H2059       H  0.06269866  0.60195065  0.64437518     0.40600
H2060       H  0.02742407  0.61883412  0.64581828     0.35500
C2061       C  0.91816853  0.48451153  0.86103946    -0.26200
C2062       C  0.88290209  0.45138782  0.84907330    -0.14300
C2063       C  0.85169795  0.41930904  0.86498615     0.36300
C2064       C  0.85748710  0.41955840  0.89184222    -0.25700
C2065       C  0.89326838  0.45159697  0.90361873    -0.14900
C2066       C  0.92362982  0.48498468  0.88825183     0.37400
N2067       N  0.96035614  0.51838604  0.90015348    -0.89100
H2068       H  0.94228275  0.50923958  0.84909909     0.18500
H2069       H  0.83346978  0.39442609  0.90364710     0.18500
N2070       N  0.81396192  0.38607292  0.85408172    -0.88200
H2071       H  0.97950775  0.54050190  0.88612966     0.35900
H2072       H  0.97758101  0.50555890  0.90774320     0.41000
H2073       H  0.78851663  0.38636731  0.86296776     0.40600
H2074       H  0.81210674  0.35763658  0.85867623     0.35500
C2075       C  0.95031079  0.43911398  0.61452370    -0.26200
C2076       C  0.91316244  0.41085705  0.60167848    -0.14300
C2077       C  0.87976433  0.37872988  0.61639016     0.36300
C2078       C  0.88270911  0.37811890  0.64348230    -0.25700
C2079       C  0.91808831  0.40885392  0.65641756    -0.14900
C2080       C  0.95294657  0.43860251  0.64190508     0.37400
N2081       N  0.98942176  0.47000794  0.65511242    -0.89100
H2082       H  0.97623006  0.46347199  0.60339957     0.18500
H2083       H  0.85591847  0.35506504  0.65470833     0.18500
N2084       N  0.84226255  0.34664256  0.60456119    -0.88200
H2085       H  0.01191696  0.49037917  0.64163755     0.35900
H2086       H  0.00265444  0.45477930  0.66489620     0.41000
H2087       H  0.85051289  0.33252475  0.58976717     0.40600
H2088       H  0.82574151  0.35989603  0.59658819     0.35500
C2089       C  0.69930542  0.56812961  0.78604653    -0.26200
C2090       C  0.66230253  0.56962931  0.79122003    -0.14300
C2091       C  0.66410772  0.59682011  0.81131203     0.36300
C2092       C  0.70264423  0.62342007  0.82388805    -0.25700
C2093       C  0.73974118  0.62257978  0.81789662    -0.14900
C2094       C  0.73732793  0.59363130  0.79910767     0.37400
N2095       N  0.77428524  0.59217205  0.79197589    -0.89100
H2096       H  0.69887655  0.54680794  0.77137275     0.18500
H2097       H  0.70386218  0.64575258  0.83809075     0.18500
N2098       N  0.62799057  0.59924610  0.81876759    -0.88200
H2099       H  0.76829091  0.57161258  0.77643553     0.35900
H2100       H  0.78205265  0.57987551  0.80788829     0.41000
H2101       H  0.60495638  0.56979874  0.82556081     0.40600
H2102       H  0.61676926  0.60673927  0.80221555     0.35500
C2103       C  0.35891847  0.38148714  0.69050304    -0.26200
C2104       C  0.32501935  0.37617913  0.70607417    -0.14300
C2105       C  0.33214533  0.38444973  0.73322217     0.36300
C2106       C  0.37291876  0.39893982  0.74370050    -0.25700
C2107       C  0.40695155  0.40541605  0.72762006    -0.14900
C2108       C  0.39902054  0.39582981  0.70078106     0.37400
N2109       N  0.43237849  0.40198713  0.68344689    -0.89100
H2110       H  0.35478820  0.37637321  0.66963702     0.18500
H2111       H  0.37800732  0.40490865  0.76442329     0.18500
N2112       N  0.29863550  0.38011243  0.74984502    -0.88200
H2113       H  0.43556667  0.42331962  0.66896323     0.35900
H2114       H  0.42385105  0.37342515  0.67443809     0.41000
H2115       H  0.30893066  0.38812558  0.76903081     0.40600
H2116       H  0.27555501  0.34840752  0.75015479     0.35500
C2117       C  0.73211682  0.48085186  0.76708983    -0.26200
C2118       C  0.70308690  0.46191594  0.74702346    -0.14300
C2119       C  0.71319248  0.44512583  0.72531884     0.36300
C2120       C  0.75252006  0.44831164  0.72394405    -0.25700
C2121       C  0.78164600  0.46659021  0.74420975    -0.14900
C2122       C  0.77113159  0.48343142  0.76598796     0.37400
N2123       N  0.79843194  0.50200061  0.78770229    -0.89100
H2124       H  0.72423657  0.49338094  0.78395890     0.18500
H2125       H  0.75973040  0.43487606  0.70727425     0.18500
N2126       N  0.68284663  0.42325505  0.70531601    -0.88200
H2127       H  0.82642862  0.52770217  0.78103277     0.35900
H2128       H  0.80445579  0.47984427  0.79605306     0.41000
H2129       H  0.65787386  0.39650037  0.71388161     0.40600
H2130       H  0.69524494  0.41270064  0.69073263     0.35500
C2131       C  0.40914522  0.29593917  0.55858029    -0.26200
C2132       C  0.40574235  0.31280347  0.53447405    -0.14300
C2133       C  0.37032795  0.28746236  0.51912954     0.36300
C2134       C  0.34065923  0.24664614  0.52766958    -0.25700
C2135       C  0.34558836  0.22910903  0.55101236    -0.14900
C2136       C  0.38044008  0.25475094  0.56661632     0.37400
N2137       N  0.38758794  0.24010663  0.59078109    -0.89100
H2138       H  0.44371722  0.27413095  0.01779327     0.18500
H2139       H  0.31390630  0.22790565  0.51540952     0.18500
N2140       N  0.36447774  0.30140363  0.49432767    -0.88200
H2141       H  0.37047345  0.17374768  0.02627344     0.35900
H2142       H  0.36127898  0.23031165  0.60286076     0.41000
H2143       H  0.39012781  0.30810650  0.48227798     0.40600
H2144       H  0.36353328  0.32891925  0.49717566     0.35500
C2145       C  0.70943979  0.45437286  0.52329095    -0.26200
C2146       C  0.70399153  0.47315956  0.99544823    -0.14300
C2147       C  0.72420162  0.46959076  0.97296634     0.36300
C2148       C  0.75916660  0.46477274  0.97573969    -0.25700
C2149       C  0.76666577  0.44823932  0.50422026    -0.14900
C2150       C  0.74404779  0.44892208  0.52654148     0.37400
N2151       N  0.75530762  0.44304345  0.55229524    -0.89100
H2152       H  0.69114202  0.45353693  0.54020494     0.18500
H2153       H  0.77369988  0.46068690  0.95837318     0.18500
N2154       N  0.70831287  0.46962230  0.94747514    -0.88200
H2155       H  0.73390731  0.44198363  0.56620957     0.35900
H2156       H  0.78398517  0.46948167  0.55667894     0.41000
H2157       H  0.72656529  0.46634889  0.93296414     0.40600
H2158       H  0.71123744  0.49897707  0.94462761     0.35500
C2159       C  0.59729707  0.60765965  0.98549519    -0.26200
C2160       C  0.57027203  0.56905673  0.97327541    -0.14300
C2161       C  0.55933003  0.57011839  0.94716813     0.36300
C2162       C  0.57431076  0.60885937  0.93426135    -0.25700
C2163       C  0.60014619  0.64789729  0.94652311    -0.14900
C2164       C  0.61150729  0.64664914  0.97277991     0.37400
N2165       N  0.63713369  0.68410101  0.98719205    -0.89100
H2166       H  0.60722905  0.60755763  0.00529816     0.18500
H2167       H  0.56469582  0.60814244  0.91429846     0.18500
N2168       N  0.53391684  0.53166998  0.93341506    -0.88200
H2169       H  0.62141495  0.70085015  0.98902509     0.35900
H2170       H  0.66512276  0.70218776  0.97680182     0.41000
H2171       H  0.55119054  0.51647518  0.93150922     0.40600
H2172       H  0.52807270  0.53768713  0.91446376     0.35500
C2173       C  0.60207730  0.49100921  0.61043048    -0.26200
C2174       C  0.56728369  0.45994657  0.59720945    -0.14300
C2175       C  0.53019331  0.43309340  0.61113948     0.36300
C2176       C  0.52972667  0.43537458  0.63833690    -0.25700
C2177       C  0.56552639  0.46393321  0.65204602    -0.14900
C2178       C  0.60173331  0.49320191  0.63775427     0.37400
N2179       N  0.63922617  0.52385896  0.65027416    -0.89100
H2180       H  0.63043006  0.51196860  0.59963885     0.18500
H2181       H  0.50151842  0.41358809  0.64893267     0.18500
N2182       N  0.49342180  0.40277577  0.59754267    -0.88200
H2183       H  0.64963320  0.50853797  0.66256706     0.35900
H2184       H  0.63242385  0.54350357  0.66135010     0.41000
H2185       H  0.48356651  0.41921244  0.58581343     0.40600
H2186       H  0.46888825  0.38503839  0.61066381     0.35500
C2187       C  0.53125050  0.38555060  0.88974199    -0.26200
C2188       C  0.51643163  0.40818170  0.90370490    -0.14300
C2189       C  0.49989985  0.42950307  0.88998133     0.36300
C2190       C  0.50337982  0.43185936  0.86254624    -0.25700
C2191       C  0.52233085  0.41268785  0.84871508    -0.14900
C2192       C  0.53438623  0.38741794  0.86265421     0.37400
N2193       N  0.55040621  0.36355942  0.85014123    -0.89100
H2194       H  0.54243530  0.36760767  0.90009992     0.18500
H2195       H  0.49305677  0.45040556  0.85208835     0.18500
N2196       N  0.48180705  0.45046737  0.90383563    -0.88200
H2197       H  0.57995101  0.38376810  0.84210018     0.35900
H2198       H  0.52975045  0.34517767  0.83552178     0.41000
H2199       H  0.45434339  0.42747707  0.91294894     0.40600
H2200       H  0.47277197  0.46611960  0.89081792     0.35500
C2201       C  0.34321888  0.05401171  0.78107971    -0.26200
C2202       C  0.35044062  0.08237319  0.80185218    -0.14300
C2203       C  0.38892689  0.09886468  0.81496371     0.36300
C2204       C  0.41860737  0.08781511  0.80697976    -0.25700
C2205       C  0.41253760  0.06140383  0.78531484    -0.14900
C2206       C  0.37363297  0.04360348  0.77265414     0.37400
N2207       N  0.36562469  0.01651987  0.75066202    -0.89100
H2208       H  0.31383677  0.04045817  0.77078716     0.18500
H2209       H  0.44787228  0.10177413  0.81745013     0.18500
N2210       N  0.39914564  0.12703112  0.83648049    -0.88200
H2211       H  0.33607519  0.00700484  0.74301875     0.35900
H2212       H  0.36469945  0.98943166  0.75747846     0.41000
H2213       H  0.37593430  0.11261804  0.85090844     0.40600
H2214       H  0.39985624  0.15414398  0.82998059     0.35500
C2215       C  0.71298489  0.22482902  0.71343006    -0.26200
C2216       C  0.70035129  0.19900117  0.73570307    -0.14300
C2217       C  0.72324291  0.21450818  0.75900592     0.36300
C2218       C  0.75557852  0.25606300  0.76004695    -0.25700
C2219       C  0.76578817  0.28288109  0.73842442    -0.14900
C2220       C  0.74535977  0.26642912  0.71448208     0.37400
N2221       N  0.75496923  0.29149353  0.69134769    -0.89100
H2222       H  0.69593651  0.21329138  0.69537394     0.18500
H2223       H  0.77197012  0.26784678  0.77829209     0.18500
N2224       N  0.71287697  0.18993851  0.78240871    -0.88200
H2225       H  0.78594431  0.30187406  0.68574675     0.35900
H2226       H  0.75149523  0.31730174  0.69544302     0.41000
H2227       H  0.71524955  0.16343685  0.77862123     0.40600
H2228       H  0.68213166  0.18071747  0.78802118     0.35500
C2229       C  0.61068836  0.93137361  0.71326025    -0.26200
C2230       C  0.58741249  0.90983710  0.69120740    -0.14300
C2231       C  0.55199897  0.91389780  0.68494887     0.36300
C2232       C  0.54112119  0.93844413  0.70063944    -0.25700
C2233       C  0.56529809  0.96123514  0.72187724    -0.14900
C2234       C  0.60044683  0.95727232  0.72837868     0.37400
N2235       N  0.62556369  0.97934130  0.75048176    -0.89100
H2236       H  0.63691521  0.92786364  0.71885356     0.18500
H2237       H  0.51433048  0.94120758  0.69546054     0.18500
N2238       N  0.52642306  0.89273925  0.66278695    -0.88200
H2239       H  0.65016985  0.97338316  0.75261817     0.35900
H2240       H  0.60663021  0.96742576  0.76718208     0.41000
H2241       H  0.54407945  0.90760013  0.64602421     0.40600
H2242       H  0.50006801  0.89619453  0.66221825     0.35500
C2243       C  0.51814046  0.22573171  0.73128374    -0.26200
C2244       C  0.55140576  0.22535111  0.74402095    -0.14300
C2245       C  0.58223957  0.26203354  0.75622458     0.36300
C2246       C  0.57870322  0.29767566  0.75613401    -0.25700
C2247       C  0.54484185  0.29818678  0.74424201    -0.14900
C2248       C  0.51447555  0.26188689  0.73120396     0.37400
N2249       N  0.47971321  0.26132278  0.71854474    -0.89100
H2250       H  0.49461686  0.19753477  0.72176134     0.18500
H2251       H  0.60310754  0.32542577  0.76556533     0.18500
N2252       N  0.61827936  0.26456835  0.76823253    -0.88200
H2253       H  0.45901890  0.23139317  0.71144642     0.35900
H2254       H  0.49153729  0.28085284  0.70216414     0.41000
H2255       H  0.63350332  0.25550516  0.75464792     0.40600
H2256       H  0.60868616  0.24435005  0.78429152     0.35500
C2257       C  0.69335075  0.09389810  0.54185714    -0.26200
C2258       C  0.66256764  0.05224300  0.53587511    -0.14300
C2259       C  0.66947394  0.01990220  0.54404255     0.36300
C2260       C  0.70719023  0.03003005  0.55714220    -0.25700
C2261       C  0.73870816  0.07202718  0.56244416    -0.14900
C2262       C  0.73071484  0.10398400  0.55489310     0.37400
N2263       N  0.76050465  0.14696713  0.56012604    -0.89100
H2264       H  0.69383444  0.11983015  0.03208304     0.18500
H2265       H  0.71241446  0.00475335  0.56254785     0.18500
N2266       N  0.63950552  0.97723156  0.53780549    -0.88200
H2267       H  0.75308476  0.16346698  0.06544307     0.35900
H2268       H  0.76938359  0.16318449  0.54235430     0.41000
H2269       H  0.61191130  0.96914392  0.54814628     0.40600
H2270       H  0.64975223  0.95718854  0.54437416     0.35500
C2271       C  0.54260953  0.26458277  0.47417454    -0.26200
C2272       C  0.53374531  0.27866499  0.49756255    -0.14300
C2273       C  0.55324731  0.26823349  0.02335182     0.36300
C2274       C  0.54721915  0.22782002  0.02182865    -0.25700
C2275       C  0.53715409  0.20556485  0.99817370    -0.14900
C2276       C  0.53046651  0.22359935  0.97584163     0.37400
N2277       N  0.51916893  0.20142463  0.95148649    -0.89100
H2278       H  0.55423449  0.28503693  0.45725870     0.18500
H2279       H  0.55178394  0.21427329  0.03934225     0.18500
N2280       N  0.50496267  0.26311083  0.54257615    -0.88200
H2281       H  0.58291586  0.23523859  0.44525287     0.35900
H2282       H  0.48892128  0.17575676  0.95379439     0.41000
H2283       H  0.59254324  0.29171756  0.05388233     0.40600
H2284       H  0.54130608  0.27185722  0.06156045     0.35500
C2285       C  0.38227878  0.97102260  0.96656280    -0.26200
C2286       C  0.41372093  0.96073026  0.97148524    -0.14300
C2287       C  0.40503059  0.92009397  0.96453953     0.36300
C2288       C  0.36738706  0.89242307  0.95191559    -0.25700
C2289       C  0.33676675  0.90326282  0.94601757    -0.14900
C2290       C  0.34409190  0.94280187  0.95434778     0.37400
N2291       N  0.31425345  0.95583093  0.94975862    -0.89100
H2292       H  0.38773620  0.00176824  0.97180969     0.18500
H2293       H  0.36230686  0.86195907  0.94622166     0.18500
N2294       N  0.43214195  0.90427627  0.46587823    -0.88200
H2295       H  0.28624997  0.93480944  0.95927396     0.35900
H2296       H  0.30872674  0.95427679  0.92970999     0.41000
H2297       H  0.43750721  0.90415019  0.48585343     0.40600
H2298       H  0.46021838  0.92554130  0.45653071     0.35500
C2299       C  0.51029905  0.09022421  0.63616948    -0.26200
C2300       C  0.51066748  0.05839030  0.65080403    -0.14300
C2301       C  0.51150484  0.02510889  0.63751040     0.36300
C2302       C  0.51354231  0.02561099  0.61005404    -0.25700
C2303       C  0.51635412  0.05919110  0.59559531    -0.14900
C2304       C  0.51311664  0.09103947  0.60879484     0.37400
N2305       N  0.51408750  0.12486189  0.59438528    -0.89100
H2306       H  0.50989478  0.11580293  0.64629432     0.18500
H2307       H  0.51610377  0.00109476  0.60009016     0.18500
N2308       N  0.51294380  0.99181261  0.65100132    -0.88200
H2309       H  0.51195517  0.14598694  0.60700954     0.35900
H2310       H  0.48744009  0.11208689  0.58273719     0.41000
H2311       H  0.51164837  0.99461155  0.67116932     0.40600
H2312       H  0.54183889  0.99432280  0.64668695     0.35500
C2313       C  0.57609941  0.04960013  0.85625982    -0.26200
C2314       C  0.59147731  0.08874599  0.84405366    -0.14300
C2315       C  0.60638087  0.12506053  0.85949326     0.36300
C2316       C  0.60198790  0.12119088  0.88670480    -0.25700
C2317       C  0.58379760  0.08192358  0.89882324    -0.14900
C2318       C  0.57196351  0.04581848  0.88369303     0.37400
N2319       N  0.55433552  0.00552241  0.89611368    -0.89100
H2320       H  0.56476942  0.02175446  0.84437858     0.18500
H2321       H  0.61203158  0.14890669  0.89855762     0.18500
N2322       N  0.62493367  0.16566602  0.84734005    -0.88200
H2323       H  0.54726172  0.98220554  0.88220426     0.35900
H2324       H  0.52592416  0.99886928  0.90483839     0.41000
H2325       H  0.65231292  0.17097889  0.83775523     0.40600
H2326       H  0.63402311  0.18911066  0.86141578     0.35500
C2327       C  0.72331446  0.22004631  0.52392061    -0.26200
C2328       C  0.70247787  0.20701270  0.49996976    -0.14300
C2329       C  0.73586419  0.22122541  0.98316826     0.36300
C2330       C  0.77269872  0.26000179  0.98495977    -0.25700
C2331       C  0.78015224  0.28628615  0.00653260    -0.14900
C2332       C  0.76222488  0.25656482  0.52566254     0.37400
N2333       N  0.78181556  0.26817224  0.55066457    -0.89100
H2334       H  0.70891068  0.20227244  0.54160253     0.18500
H2335       H  0.79475419  0.27031973  0.96872743     0.18500
N2336       N  0.73045600  0.19647263  0.96041157    -0.88200
H2337       H  0.78414420  0.29629789  0.55656169     0.35900
H2338       H  0.81188903  0.27235213  0.54892151     0.41000
H2339       H  0.70517114  0.19349686  0.94977660     0.40600
H2340       H  0.72452014  0.16689569  0.96629534     0.35500
loop_ 
_geom_bond_atom_site_label_1 
_geom_bond_atom_site_label_2 
_geom_bond_distance 
_geom_bond_site_symmetry_2 
_ccdc_geom_bond_type 
Zn1           O5   1.921   1_554  S
Zn1           O6   2.041       .  S
Zn1          O10   2.150       .  S
Zn1          O17   2.141   1_544  S
Zn2           O5   1.897   1_554  S
Zn2           O7   2.002       .  S
Zn2           O9   1.993       .  S
Zn2          O13   1.961       .  S
Zn3        O1175   1.910       .  S
Zn3           O8   1.967       .  S
Zn3          O11   1.972       .  S
Zn3          O14   2.017       .  S
Zn4        O1175   1.909       .  S
Zn4          O12   2.030       .  S
Zn4          O15   2.032       .  S
Zn4          O16   2.012       .  S
O5        Zn1173   1.905       .  S
O5        Zn1174   1.910       .  S
O6           C18   1.276       .  A
O7           C19   1.274       .  A
O8         C1190   1.269       .  A
O9           C18   1.272       .  A
O10          C20   1.292       .  A
O11        C1189   1.269       .  A
O12          C21   1.276       .  A
O13        C1192   1.269   1_554  A
O14          C21   1.273       .  A
O15          C22   1.276       .  A
O16          C23   1.278   1_545  A
O17        C1193   1.298       .  A
C18        C1133   1.480       .  S
C19        O1181   1.270   1_554  A
C19        C1158   1.479       .  S
C20        O1178   1.268       .  A
C20        C1088   1.506       .  S
C21        C1147   1.477       .  S
C22        O1183   1.271       .  A
C22        C1105   1.469       .  S
C23        O1187   1.301       .  A
C23        C1116   1.517       .  S
Zn24         O28   1.912       .  S
Zn24         O29   1.974       .  S
Zn24         O33   1.987       .  S
Zn24         O40   2.008       .  S
Zn25         O28   1.941       .  S
Zn25         O30   2.146   1_545  S
Zn25         O32   2.061       .  S
Zn25         O36   2.185       .  S
Zn26         O28   1.932       .  S
Zn26         O31   2.035       .  S
Zn26         O34   2.023       .  S
Zn26         O37   2.077       .  S
Zn27         O28   1.893       .  S
Zn27         O35   1.945       .  S
Zn27         O38   1.931       .  S
Zn27         O39   1.981       .  S
O29          C41   1.271       .  A
O30          C42   1.298       .  A
O31          C43   1.279       .  A
O32          C41   1.278       .  A
O33          C43   1.273       .  A
O34          C42   1.279   1_545  A
O35          C44   1.265       .  A
O36          C45   1.298       .  A
O37          C44   1.278       .  A
O38          C45   1.265       .  A
O39          C46   1.266       .  A
O40          C46   1.271       .  A
C41        C1130   1.477       .  S
C42        C1063   1.518       .  S
C43        C1046   1.476       .  S
C44        C1144   1.484       .  S
C45        C1035   1.506       .  S
C46        C1074   1.481       .  S
Zn47         O51   1.939       .  S
Zn47         O52   2.146       .  S
Zn47         O56   2.182       .  S
Zn47         O63   2.058       .  S
Zn48       O1221   1.923       .  S
Zn48         O53   2.030       .  S
Zn48         O55   2.002   1_554  S
Zn48         O59   2.021       .  S
Zn49       O1221   1.896       .  S
Zn49         O54   1.915       .  S
Zn49         O57   1.968       .  S
Zn49         O60   2.004       .  S
Zn50         O51   1.881       .  S
Zn50         O58   2.001       .  S
Zn50         O61   1.976       .  S
Zn50         O62   1.948       .  S
O51       Zn1218   1.917       .  S
O51       Zn1219   1.893       .  S
O52          C64   1.297       .  A
O53          C65   1.274       .  A
O54          C66   1.263       .  A
O55        C1234   1.275       .  A
O56        C1236   1.297       .  A
O57          C65   1.269       .  A
O58        C1237   1.271       .  A
O59        C1238   1.276   1_554  A
O60          C67   1.272       .  A
O61          C68   1.271       .  A
O62          C69   1.269       .  A
O63          C69   1.278       .  A
C64        O1225   1.278       .  A
C64         C990   1.512       .  S
C65        C1004   1.468       .  S
C66        O1226   1.296       .  A
C66         C962   1.504       .  S
C67        O1228   1.270   1_554  A
C67        C1102   1.487       .  S
C68        O1229   1.276       .  A
C68         C976   1.463       .  S
C69        C1018   1.471       .  S
Zn70         O74   1.904       .  S
Zn70         O75   2.026       .  S
Zn70         O79   1.979       .  S
Zn70         O86   1.987       .  S
Zn71         O74   1.896       .  S
Zn71         O76   1.985       .  S
Zn71         O78   1.988       .  S
Zn71         O82   1.957       .  S
Zn72         O74   1.883       .  S
Zn72         O77   2.019       .  S
Zn72         O80   2.017       .  S
Zn72         O83   1.994       .  S
Zn73         O74   1.922       .  S
Zn73         O81   2.186       .  S
Zn73         O84   2.166       .  S
Zn73         O85   2.025       .  S
O75          C87   1.275       .  A
O76          C88   1.271       .  A
O77          C89   1.276       .  A
O78          C87   1.271       .  A
O79          C89   1.271       .  A
O80          C88   1.277       .  A
O81          C90   1.301       .  A
O82          C91   1.269       .  A
O83          C90   1.274       .  A
O84          C91   1.295       .  A
O85          C92   1.275       .  A
O86          C92   1.274       .  A
C87         C948   1.484       .  S
C88        C1007   1.479       .  S
C89        C1077   1.474       .  S
C90         C937   1.528       .  S
C91         C920   1.512       .  S
C92        C1021   1.467       .  S
Zn93         O97   1.897       .  S
Zn93         O98   1.942       .  S
Zn93        O102   2.004       .  S
Zn93        O109   1.993       .  S
Zn94         O97   1.932       .  S
Zn94         O99   2.067       .  S
Zn94        O101   2.172       .  S
Zn94        O105   2.127       .  S
Zn95         O97   1.891       .  S
Zn95        O100   2.008       .  S
Zn95        O103   1.965       .  S
Zn95        O106   1.985       .  S
Zn96         O97   1.919       .  S
Zn96        O104   2.031       .  S
Zn96        O107   2.024       .  S
Zn96        O108   2.048       .  S
O98         C110   1.265       .  A
O99         C111   1.279       .  A
O100        C112   1.269       .  A
O101        C110   1.297       .  A
O102        C112   1.274       .  A
O103        C111   1.270       .  A
O104        C113   1.277       .  A
O105        C114   1.294       .  A
O106        C113   1.273       .  A
O107        C114   1.278       .  A
O108        C115   1.278       .  A
O109        C115   1.272       .  A
C110        C864   1.502       .  S
C111        C909   1.470       .  S
C112       C1049   1.487       .  S
C113        C951   1.478       .  S
C114        C881   1.503   1_655  S
C115        C892   1.491       .  S
Zn116      O1290   1.911       .  S
Zn116       O121   2.165       .  S
Zn116       O125   2.025       .  S
Zn116       O132   2.152       .  S
Zn117       O120   1.893       .  S
Zn117       O122   2.006       .  S
Zn117       O124   1.980       .  S
Zn117       O128   2.024       .  S
Zn118      O1290   1.903       .  S
Zn118       O123   2.009       .  S
Zn118       O126   1.975       .  S
Zn118       O129   2.025       .  S
Zn119       O120   1.896       .  S
Zn119       O127   1.973       .  S
Zn119       O130   2.023       .  S
Zn119       O131   1.971       .  S
O120      Zn1286   1.921       .  S
O120      Zn1288   1.913       .  S
O121       C1303   1.299   1_554  A
O122        C134   1.274       .  A
O123        C135   1.274       .  A
O124        C133   1.273       .  A
O125        C135   1.275       .  A
O126       C1304   1.269       .  A
O127       C1306   1.271       .  A
O128        C137   1.275       .  A
O129        C136   1.275       .  A
O130        C137   1.275       .  A
O131       C1308   1.270       .  A
O132        C138   1.291       .  A
C133       O1291   1.297       .  A
C133        C850   1.501   1_655  S
C134       O1296   1.270       .  A
C134       C1161   1.465       .  S
C135        C906   1.482       .  S
C136       O1297   1.272   1_554  A
C136        C979   1.482       .  S
C137        C895   1.478       .  S
C138       O1301   1.269       .  A
C138        C839   1.517       .  S
Zn139       O143   1.881       .  S
Zn139       O144   2.023       .  S
Zn139       O148   1.990       .  S
Zn139       O155   1.997       .  S
Zn140       O143   1.876       .  S
Zn140       O145   1.983       .  S
Zn140       O147   1.973       .  S
Zn140       O151   2.008       .  S
Zn141       O143   1.902       .  S
Zn141       O146   2.154       .  S
Zn141       O149   2.009       .  S
Zn141       O152   2.154       .  S
Zn142       O143   1.886       .  S
Zn142       O150   1.973       .  S
Zn142       O153   1.983       .  S
Zn142       O154   1.982       .  S
O144        C156   1.275       .  A
O145        C157   1.273       .  A
O146        C158   1.299       .  A
O147        C156   1.270       .  A
O148        C158   1.274       .  A
O149        C157   1.274       .  A
O150        C159   1.268       .  A
O151        C160   1.275       .  A
O152        C159   1.292       .  A
O153        C160   1.272       .  A
O154        C161   1.273       .  A
O155        C161   1.274       .  A
C156        C769   1.480       .  S
C157        C797   1.457       .  S
C158        C783   1.502       .  S
C159       C1060   1.524       .  S
C160        C822   1.480       .  S
C161        C811   1.468       .  S
Zn162       O166   1.906       .  S
Zn162       O167   1.991       .  S
Zn162       O171   1.969       .  S
Zn162       O178   1.996       .  S
Zn163       O166   1.906       .  S
Zn163       O168   1.973       .  S
Zn163       O170   2.012       .  S
Zn163       O174   1.996       .  S
Zn164       O166   1.934       .  S
Zn164       O169   2.162       .  S
Zn164       O172   2.019       .  S
Zn164       O175   2.171       .  S
Zn165       O166   1.893       .  S
Zn165       O173   1.972       .  S
Zn165       O176   2.013       .  S
Zn165       O177   2.003       .  S
O167        C179   1.271       .  A
O168        C180   1.271       .  A
O169        C181   1.293       .  A
O170        C179   1.273       .  A
O171        C181   1.270       .  A
O172        C180   1.274       .  A
O173        C182   1.271       .  A
O174        C183   1.272       .  A
O175        C182   1.299       .  A
O176        C183   1.274       .  A
O177        C184   1.274       .  A
O178        C184   1.273       .  A
C179        C752   1.469       .  S
C180       C1978   1.473       .  S
C181        C993   1.527       .  S
C182        C738   1.518       .  S
C183        C727   1.467       .  S
C184        C794   1.468       .  S
Zn185       O189   1.948       .  S
Zn185       O190   2.130       .  S
Zn185       O194   2.071       .  S
Zn185       O201   2.161       .  S
Zn186       O189   1.937       .  S
Zn186       O191   2.028       .  S
Zn186       O193   2.023       .  S
Zn186       O197   2.051       .  S
Zn187       O189   1.905       .  S
Zn187       O192   1.960       .  S
Zn187       O195   1.980       .  S
Zn187       O198   2.012       .  S
Zn188       O189   1.905       .  S
Zn188       O196   2.001       .  S
Zn188       O199   1.977       .  S
Zn188       O200   1.939       .  S
O190        C202   1.294       .  A
O191        C203   1.277       .  A
O192        C204   1.271       .  A
O193        C202   1.278       .  A
O194        C204   1.279       .  A
O195        C203   1.273       .  A
O196        C205   1.271       .  A
O197        C206   1.277       .  A
O198        C205   1.270       .  A
O199        C206   1.271       .  A
O200        C207   1.264       .  A
O201        C207   1.295       .  A
C202        C671   1.509       .  S
C203        C755   1.482       .  S
C204        C696   1.476       .  S
C205        C710   1.482       .  S
C206       C1852   1.493       .  S
C207        C853   1.496       .  S
Zn208       O212   1.910       .  S
Zn208       O213   1.986       .  S
Zn208       O217   2.008       .  S
Zn208       O224   1.995       .  S
Zn209       O212   1.907       .  S
Zn209       O214   2.012       .  S
Zn209       O216   2.023       .  S
Zn209       O220   1.993       .  S
Zn210       O212   1.922       .  S
Zn210       O215   1.983       .  S
Zn210       O218   2.024       .  S
Zn210       O221   1.980       .  S
Zn211       O212   1.931       .  S
Zn211       O219   2.149       .  S
Zn211       O222   2.149       .  S
Zn211       O223   2.041       .  S
O213        C225   1.272       .  A
O214        C226   1.274       .  A
O215        C227   1.271       .  A
O216        C225   1.274       .  A
O217        C227   1.273       .  A
O218        C226   1.274       .  A
O219        C228   1.292       .  A
O220        C229   1.275       .  A
O221        C228   1.270       .  A
O222        C229   1.298       .  A
O223        C230   1.275       .  A
O224        C230   1.273       .  A
C225        C643   1.479       .  S
C226        C685   1.478       .  S
C227        C766   1.478       .  S
C228        C934   1.502       .  S
C229        C657   1.509       .  S
C230        C699   1.487       .  S
Zn231       O235   1.919       .  S
Zn231       O236   2.134       .  S
Zn231       O240   2.149       .  S
Zn231       O247   2.027       .  S
Zn232       O235   1.902       .  S
Zn232       O237   1.987       .  S
Zn232       O239   1.963       .  S
Zn232       O243   1.997       .  S
Zn233       O235   1.900       .  S
Zn233       O238   2.001       .  S
Zn233       O241   2.010       .  S
Zn233       O244   2.028       .  S
Zn234       O235   1.890       .  S
Zn234       O242   1.965       .  S
Zn234       O245   2.013       .  S
Zn234       O246   1.986       .  S
O236        C248   1.290       .  A
O237        C249   1.272       .  A
O238        C250   1.276       .  A
O239        C248   1.267       .  A
O240        C250   1.298       .  A
O241        C249   1.274       .  A
O242        C251   1.270       .  A
O243        C252   1.273       .  A
O244        C251   1.276       .  A
O245        C252   1.274       .  A
O246        C253   1.272       .  A
O247        C253   1.275       .  A
C248        C878   1.513       .  S
C249        C629   1.469       .  S
C250        C598   1.513       .  S
C251        C825   1.474       .  S
C252        C640   1.487       .  S
C253        C612   1.465       .  S
Zn254       O258   1.922       .  S
Zn254       O259   2.150       .  S
Zn254       O263   2.027       .  S
Zn254       O270   2.154       .  S
Zn255       O258   1.900       .  S
Zn255       O260   1.991       .  S
Zn255       O262   1.985       .  S
Zn255       O266   2.013       .  S
Zn256       O258   1.894       .  S
Zn256       O261   1.974       .  S
Zn256       O264   2.012       .  S
Zn256       O267   1.971       .  S
Zn257       O258   1.905       .  S
Zn257       O265   2.051       .  S
Zn257       O268   2.011       .  S
Zn257       O269   2.024       .  S
O259        C271   1.292       .  A
O260        C272   1.272       .  A
O261        C273   1.271       .  A
O262        C271   1.271       .  A
O263        C273   1.276       .  A
O264        C272   1.274       .  A
O265        C274   1.278       .  A
O266        C275   1.275       .  A
O267        C274   1.270       .  A
O268        C275   1.276       .  A
O269        C276   1.279       .  A
O270        C276   1.299       .  A
C271       C1119   1.512       .  S
C272        C724   1.480       .  S
C273       C1796   1.472       .  S
C274        C713   1.469       .  S
C275        C615   1.482       .  S
C276        C584   1.514       .  S
Zn277       O281   1.901       .  S
Zn277       O282   1.993       .  S
Zn277       O286   1.961       .  S
Zn277       O293   2.012       .  S
Zn278       O281   1.913       .  S
Zn278       O283   2.149       .  S
Zn278       O285   2.027       .  S
Zn278       O289   2.140       .  S
Zn279       O281   1.904       .  S
Zn279       O284   2.022       .  S
Zn279       O287   1.985       .  S
Zn279       O290   2.004       .  S
Zn280       O281   1.912       .  S
Zn280       O288   2.022       .  S
Zn280       O291   1.980       .  S
Zn280       O292   2.005       .  S
O282        C294   1.272       .  A
O283        C295   1.298       .  A
O284        C296   1.276   1_545  A
O285        C294   1.274       .  A
O286        C296   1.269   1_545  A
O287        C295   1.274       .  A
O288        C297   1.275       .  A
O289        C298   1.291       .  A
O290        C297   1.273       .  A
O291        C298   1.271       .  A
O292        C299   1.274       .  A
O293        C299   1.274       .  A
C294        C542   1.475       .  S
C295       C1032   1.504       .  S
C296        C531   1.466       .  S
C297        C559   1.475       .  S
C298        C668   1.522       .  S
C299        C573   1.487       .  S
Zn300       O304   1.921       .  S
Zn300       O305   2.143       .  S
Zn300       O309   2.138       .  S
Zn300       O316   2.044       .  S
Zn301       O304   1.899       .  S
Zn301       O306   2.015       .  S
Zn301       O308   1.996       .  S
Zn301       O312   2.035       .  S
Zn302       O304   1.903       .  S
Zn302       O307   1.975       .  S
Zn302       O310   2.005       .  S
Zn302       O313   1.993   1_545  S
Zn303       O304   1.891       .  S
Zn303       O311   1.997       .  S
Zn303       O314   1.951       .  S
Zn303       O315   1.967       .  S
O305        C317   1.298       .  A
O306        C318   1.275       .  A
O307        C319   1.271       .  A
O308        C317   1.276       .  A
O309        C319   1.291       .  A
O310        C318   1.274       .  A
O311        C320   1.271   1_545  A
O312        C321   1.277       .  A
O313        C320   1.272       .  A
O314        C321   1.267       .  A
O315        C322   1.269       .  A
O316        C322   1.276       .  A
C317        C965   1.508       .  S
C318       C1715   1.469   1_554  S
C319        C601   1.506   1_545  S
C320        C514   1.476       .  S
C321        C503   1.466       .  S
C322        C556   1.468       .  S
Zn323       O327   1.886       .  S
Zn323       O328   1.982       .  S
Zn323       O332   1.976       .  S
Zn323       O339   2.008       .  S
Zn324       O327   1.904       .  S
Zn324       O329   2.154       .  S
Zn324       O331   2.015       .  S
Zn324       O335   2.158       .  S
Zn325       O327   1.887       .  S
Zn325       O330   2.039       .  S
Zn325       O333   2.002       .  S
Zn325       O336   2.020       .  S
Zn326       O327   1.889       .  S
Zn326       O334   1.974       .  S
Zn326       O337   1.970       .  S
Zn326       O338   1.981       .  S
O328        C340   1.272       .  A
O329        C341   1.299       .  A
O330        C342   1.279       .  A
O331        C340   1.274       .  A
O332        C342   1.271       .  A
O333        C341   1.276       .  A
O334        C343   1.272       .  A
O335        C344   1.293       .  A
O336        C343   1.277       .  A
O337        C344   1.270       .  A
O338        C345   1.269       .  A
O339        C345   1.275       .  A
C340        C472   1.459       .  S
C341        C923   1.515       .  S
C342        C458   1.476       .  S
C343        C486   1.462       .  S
C344        C587   1.516       .  S
C345        C528   1.480   1_655  S
Zn346       O350   1.889       .  S
Zn346       O351   2.006       .  S
Zn346       O355   2.018       .  S
Zn346       O362   1.998       .  S
Zn347       O350   1.894       .  S
Zn347       O352   2.006       .  S
Zn347       O354   2.130       .  S
Zn347       O358   2.116       .  S
Zn348       O350   1.881       .  S
Zn348       O353   1.978       .  S
Zn348       O356   1.980       .  S
Zn348       O359   1.996       .  S
Zn349       O350   1.895       .  S
Zn349       O357   1.992       .  S
Zn349       O360   1.982       .  S
Zn349       O361   2.001       .  S
O351        C363   1.276       .  A
O352        C364   1.274       .  A
O353        C365   1.271       .  A
O354        C363   1.296       .  A
O355        C365   1.274       .  A
O356        C364   1.272       .  A
O357        C366   1.274       .  A
O358        C367   1.287       .  A
O359        C366   1.272       .  A
O360        C367   1.272       .  A
O361        C368   1.275       .  A
O362        C368   1.274       .  A
C363        C836   1.500       .  S
C364        C489   1.458       .  S
C365        C517   1.480   1_655  S
C366        C444   1.478       .  S
C367        C780   1.512       .  S
C368       C1645   1.473   1_554  S
Zn369       O373   1.917       .  S
Zn369       O374   1.993       .  S
Zn369       O378   2.036       .  S
Zn369       O385   2.013       .  S
Zn370       O373   1.901       .  S
Zn370       O375   2.022       .  S
Zn370       O377   2.016       .  S
Zn370       O381   1.994       .  S
Zn371       O373   1.903       .  S
Zn371       O376   1.974       .  S
Zn371       O379   2.000       .  S
Zn371       O382   1.951       .  S
Zn372       O373   1.932       .  S
Zn372       O380   2.151       .  S
Zn372       O383   2.159       .  S
Zn372       O384   2.036       .  S
O374        C386   1.272       .  A
O375        C387   1.275       .  A
O376        C388   1.269   1_545  A
O377        C386   1.275       .  A
O378        C388   1.278   1_545  A
O379        C387   1.271       .  A
O380        C389   1.292       .  A
O381        C390   1.275       .  A
O382        C389   1.266       .  A
O383        C390   1.298       .  A
O384        C391   1.276       .  A
O385        C391   1.276       .  A
C386        C570   1.476   1_655  S
C387        C433   1.470       .  S
C388        C461   1.484       .  S
C389        C741   1.498   1_545  S
C390        C867   1.509       .  S
C391        C416   1.481       .  S
Zn392       O396   1.886       .  S
Zn392       O397   1.957       .  S
Zn392       O401   1.974       .  S
Zn392       O408   1.994       .  S
Zn393       O396   1.940       .  S
Zn393       O398   2.138       .  S
Zn393       O400   2.079       .  S
Zn393       O404   2.179       .  S
Zn394       O396   1.915       .  S
Zn394       O399   2.018   1_545  S
Zn394       O402   2.002       .  S
Zn394       O405   2.040       .  S
Zn395       O396   1.901       .  S
Zn395       O403   1.971       .  S
Zn395       O406   1.932       .  S
Zn395       O407   1.996       .  S
O397        C409   1.270       .  A
O398        C410   1.296       .  A
O399        C411   1.276       .  A
O400        C409   1.280       .  A
O401        C411   1.270   1_545  A
O402        C410   1.277       .  A
O403        C412   1.270       .  A
O404        C413   1.297       .  A
O405        C412   1.276       .  A
O406        C413   1.265       .  A
O407        C414   1.269       .  A
O408        C414   1.269       .  A
C409       C1589   1.479   1_554  S
C410       C1091   1.515       .  S
C411        C447   1.470       .  S
C412        C430   1.481       .  S
C413        C654   1.506       .  S
C414        C500   1.478   1_655  S
C415        C416   1.407       .  A
C415        C420   1.411       .  A
C415        H422   1.084       .  S
C416        C417   1.415       .  A
C417        C418   1.397       .  A
C417        N424   1.434       .  S
C418        C419   1.401       .  A
C418        H423   1.084       .  S
C419       C1579   1.472       .  S
C419        C420   1.409       .  A
C420       N1591   1.437       .  S
N421       C1590   1.437       .  S
N421        H425   1.045       .  S
N421        H426   1.046   1_556  S
N424        H427   1.046       .  S
N424        H428   1.044       .  S
C429        C430   1.405       .  A
C429        C434   1.397       .  A
C429        H436   1.084       .  S
C430        C431   1.415       .  A
C431        C432   1.410       .  A
C431        N438   1.437       .  S
C432        C433   1.403       .  A
C432        H437   1.084       .  S
C433        C434   1.407       .  A
C434        N435   1.439       .  S
N435        H439   1.046       .  S
N435        H440   1.046       .  S
N438        H441   1.046       .  S
N438        H442   1.046       .  S
C443        C444   1.404       .  A
C443        C448   1.392       .  A
C443        H450   1.084       .  S
C444        C445   1.416       .  A
C445        C446   1.402       .  A
C445        N452   1.438       .  S
C446        C447   1.402       .  A
C446        H451   1.084       .  S
C447        C448   1.413       .  A
C448        N449   1.433       .  S
N449        H453   1.044       .  S
N449        H454   1.046       .  S
N452        H455   1.045       .  S
N452        H456   1.045       .  S
C457        C458   1.399       .  A
C457        C462   1.401       .  A
C457        H464   1.084       .  S
C458        C459   1.412       .  A
C459        C460   1.400       .  A
C459        N466   1.433       .  S
C460        C461   1.404       .  A
C460        H465   1.084       .  S
C461        C462   1.417       .  A
C462        N463   1.433       .  S
N463        H467   1.045       .  S
N463        H468   1.046       .  S
N466        H469   1.046       .  S
N466        H470   1.046       .  S
C471        C472   1.399       .  A
C471        C476   1.407       .  A
C471        H478   1.084       .  S
C472        C473   1.403       .  A
C473        C474   1.394       .  A
C473        N480   1.440       .  S
C474        C475   1.408       .  A
C474        H479   1.083       .  S
C475       C1538   1.484       .  S
C475        C476   1.420       .  A
C476        N477   1.438       .  S
N477        H481   1.046       .  S
N477       H1652   1.046       .  S
N480        H483   1.046       .  S
N480        H484   1.046       .  S
H482       N1647   1.046       .  S
C485        C486   1.401       .  A
C485        C490   1.394       .  A
C485        H492   1.084       .  S
C486        C487   1.407       .  A
C487        C488   1.399       .  A
C487        N494   1.433       .  S
C488        C489   1.401       .  A
C488        H493   1.084       .  S
C489        C490   1.411       .  A
C490        N491   1.433       .  S
N491        H495   1.044       .  S
N491        H496   1.046       .  S
N494        H497   1.046       .  S
N494        H498   1.046       .  S
C499        C500   1.407       .  A
C499        C504   1.403       .  A
C499        H506   1.083       .  S
C500        C501   1.417       .  A
C501        C502   1.393       .  A
C501        N508   1.433       .  S
C502        C503   1.402       .  A
C502        H507   1.085       .  S
C503        C504   1.408       .  A
C504        N505   1.438       .  S
N505        H509   1.046       .  S
N505        H510   1.046       .  S
N508        H511   1.045       .  S
N508        H512   1.046       .  S
C513        C514   1.405       .  A
C513        C518   1.397       .  A
C513        H520   1.084       .  S
C514        C515   1.415       .  A
C515        C516   1.392       .  A
C515        N522   1.433       .  S
C516        C517   1.406       .  A
C516        H521   1.084   1_455  S
C517        C518   1.417       .  A
C518        N519   1.433       .  S
N519        H523   1.046       .  S
N519        H524   1.045       .  S
N522        H525   1.046       .  S
N522        H526   1.044       .  S
C527        C528   1.404       .  A
C527        C532   1.392       .  A
C527        H534   1.084       .  S
C528        C529   1.419       .  A
C529        C530   1.405       .  A
C529        N536   1.438       .  S
C530        C531   1.400       .  A
C530        H535   1.084       .  S
C531        C532   1.407       .  A
C532        N533   1.434       .  S
N533        H537   1.046       .  S
N533        H538   1.046       .  S
N536        H539   1.046       .  S
N536        H540   1.046       .  S
C541        C542   1.405       .  A
C541        C546   1.405       .  A
C541        H548   1.084       .  S
C542        C543   1.411       .  A
C543        C544   1.404       .  A
C543        N550   1.438       .  S
C544        C545   1.403       .  A
C544        H549   1.084       .  S
C545       C1488   1.470       .  S
C545        C546   1.408       .  A
C546        N547   1.438       .  S
N547        H551   1.046   1_545  S
N547        H552   1.046       .  S
N550        H553   1.045       .  S
N550        H554   1.046       .  S
C555        C556   1.399       .  A
C555        C560   1.406       .  A
C555        H562   1.084       .  S
C556        C557   1.408       .  A
C557        C558   1.401       .  A
C557        N564   1.433       .  S
C558        C559   1.400       .  A
C558        H563   1.084       .  S
C559        C560   1.415       .  A
C560        N561   1.437       .  S
N561        H565   1.046       .  S
N561        H566   1.046       .  S
N564        H567   1.045       .  S
N564        H568   1.046       .  S
C569        C570   1.401       .  A
C569        C574   1.403       .  A
C569        H576   1.084       .  S
C570        C571   1.410       .  A
C571        C572   1.403       .  A
C571        N578   1.439       .  S
C572        C573   1.408       .  A
C572        H577   1.083       .  S
C573        C574   1.417       .  A
C574        N575   1.438       .  S
N575        H579   1.045       .  S
N575        H580   1.046       .  S
N578        H581   1.044       .  S
N578        H582   1.047       .  S
C583        C584   1.418       .  A
C583        C588   1.418   1_455  A
C583        H590   1.083       .  S
C584        C585   1.411       .  A
C585        C586   1.416       .  A
C585        N592   1.438       .  S
C586        C587   1.417   1_455  A
C586        H591   1.084       .  S
C587        C588   1.413       .  A
C588        N589   1.431       .  S
N589        H593   1.045       .  S
N589        H594   1.045       .  S
N592        H595   1.045       .  S
N592        H596   1.046       .  S
C597        C598   1.420       .  A
C597        C602   1.421       .  A
C597        H604   1.083       .  S
C598        C599   1.408       .  A
C599        C600   1.411       .  A
C599        N606   1.432       .  S
C600        C601   1.415       .  A
C600        H605   1.084       .  S
C601        C602   1.408       .  A
C602        N603   1.436       .  S
N603        H607   1.046       .  S
N603        H608   1.045   1_565  S
N606        H609   1.046       .  S
N606        H610   1.046       .  S
C611        C612   1.400       .  A
C611        C616   1.398       .  A
C611        H618   1.084       .  S
C612        C613   1.406       .  A
C613        C614   1.403       .  A
C613        N620   1.438       .  S
C614        C615   1.408       .  A
C614        H619   1.084       .  S
C615        C616   1.417       .  A
C616        N617   1.432       .  S
N617        H621   1.045       .  S
N617        H622   1.046       .  S
N620        H623   1.046       .  S
N620        H624   1.045       .  S
C625        C626   1.401       .  A
C625        C630   1.394       .  A
C625        H632   1.084       .  S
C626       C1443   1.464   1_554  S
C626        C627   1.409       .  A
C627        C628   1.403       .  A
C627        N634   1.439       .  S
C628        C629   1.404       .  A
C628        H633   1.084       .  S
C629        C630   1.413       .  A
C630        N631   1.433       .  S
N631        H635   1.045       .  S
N631        H636   1.045       .  S
N634        H638   1.046       .  S
N634       H1807   1.046       .  S
H637       N1804   1.046       .  S
C639        C640   1.408       .  A
C639        C644   1.399       .  A
C639        H646   1.084       .  S
C640        C641   1.416       .  A
C641        C642   1.402       .  A
C641        N648   1.438       .  S
C642        C643   1.403       .  A
C642        H647   1.084       .  S
C643        C644   1.414       .  A
C644        N645   1.433       .  S
N645        H649   1.045       .  S
N645        H650   1.045       .  S
N648        H651   1.046       .  S
N648        H652   1.046       .  S
C653        C654   1.418   1_455  A
C653        C658   1.415       .  A
C653        H660   1.084   1_455  S
C654        C655   1.406   1_655  A
C655        C656   1.416       .  A
C655        N662   1.431       .  S
C656        C657   1.418       .  A
C656        H661   1.083       .  S
C657        C658   1.409       .  A
C658        N659   1.437       .  S
N659        H663   1.046       .  S
N659        H664   1.046       .  S
N662        H665   1.046       .  S
N662        H666   1.045       .  S
C667        C668   1.411       .  A
C667        C672   1.423       .  A
C667        H674   1.083       .  S
C668        C669   1.429       .  A
C669        C670   1.409       .  A
C669        N676   1.433       .  S
C670        C671   1.398       .  A
C670        H675   1.081       .  S
C671        C672   1.419       .  A
C672        N673   1.431       .  S
N673        H677   1.046       .  S
N673        H678   1.046       .  S
N676        H679   1.046       .  S
N676        H680   1.045       .  S
C681        C682   1.407       .  A
C681        C686   1.398       .  A
C681        H688   1.083       .  S
C682       C1376   1.492   1_554  S
C682        C683   1.418       .  A
C683        C684   1.414       .  A
C683       N1860   1.437       .  S
C684        C685   1.404       .  A
C684        H689   1.084       .  S
C685        C686   1.409       .  A
C686        N687   1.440       .  S
N687        H691   1.046       .  S
N687        H692   1.046       .  S
N690       C1853   1.437       .  S
N690        H693   1.045       .  S
N690        H694   1.046       .  S
C695        C696   1.401       .  A
C695        C700   1.400       .  A
C695        H702   1.084       .  S
C696        C697   1.411       .  A
C697        C698   1.405       .  A
C697        N704   1.430       .  S
C698        C699   1.409       .  A
C698        H703   1.083       .  S
C699        C700   1.415       .  A
C700        N701   1.439       .  S
N701        H705   1.045       .  S
N701        H706   1.046       .  S
N704        H707   1.045       .  S
N704        H708   1.044       .  S
C709        C710   1.408       .  A
C709        C714   1.410       .  A
C709        H716   1.083       .  S
C710        C711   1.411       .  A
C711        C712   1.397       .  A
C711        N718   1.433       .  S
C712        C713   1.400       .  A
C712        H717   1.084       .  S
C713        C714   1.410       .  A
C714        N715   1.438       .  S
N715        H719   1.046       .  S
N715        H720   1.046       .  S
N718        H721   1.046       .  S
N718        H722   1.046       .  S
C723        C724   1.407       .  A
C723        C728   1.401       .  A
C723        H730   1.084       .  S
C724        C725   1.413       .  A
C725        C726   1.399       .  A
C725        N732   1.432       .  S
C726        C727   1.399       .  A
C726        H731   1.084       .  S
C727        C728   1.407       .  A
C728        N729   1.433       .  S
N729        H733   1.046       .  S
N729        H734   1.046       .  S
N732        H735   1.046       .  S
N732        H736   1.046       .  S
C737        C738   1.402       .  A
C737        C742   1.417       .  A
C737        H744   1.083       .  S
C738        C739   1.432       .  A
C739        C740   1.415       .  A
C739        N746   1.433       .  S
C740        C741   1.396       .  A
C740        H745   1.084       .  S
C741        C742   1.421       .  A
C742        N743   1.437       .  S
N743        H747   1.045       .  S
N743        H748   1.046   1_565  S
N746        H749   1.046       .  S
N746        H750   1.046       .  S
C751        C752   1.402       .  A
C751        C756   1.404       .  A
C751        H758   1.084       .  S
C752        C753   1.404       .  A
C753        C754   1.398       .  A
C753        N760   1.433       .  S
C754        C755   1.408       .  A
C754        H759   1.084       .  S
C755        C756   1.416       .  A
C756        N757   1.438       .  S
N757        H761   1.046       .  S
N757        H762   1.046       .  S
N760        H763   1.046       .  S
N760        H764   1.046       .  S
C765        C766   1.407       .  A
C765        C770   1.400       .  A
C765        H772   1.084       .  S
C766        C767   1.410       .  A
C767        C768   1.397       .  A
C767        N774   1.433       .  S
C768        C769   1.407       .  A
C768        H773   1.084       .  S
C769        C770   1.409       .  A
C770        N771   1.432       .  S
N771        H775   1.046       .  S
N771        H776   1.046       .  S
N774        H777   1.046       .  S
N774        H778   1.046       .  S
C779        C780   1.417       .  A
C779        C784   1.406       .  A
C779        H786   1.083       .  S
C780        C781   1.413       .  A
C781        C782   1.421       .  A
C781        N788   1.437       .  S
C782        C783   1.415       .  A
C782        H787   1.084       .  S
C783        C784   1.410       .  A
C784        N785   1.432       .  S
N785        H789   1.045       .  S
N785        H790   1.046       .  S
N788        H791   1.045       .  S
N788        H792   1.046       .  S
C793        C794   1.403       .  A
C793        C798   1.402       .  A
C793        H800   1.084       .  S
C794        C795   1.409       .  A
C795        C796   1.398       .  A
C795        N802   1.433       .  S
C796        C797   1.398       .  A
C796        H801   1.084       .  S
C797        C798   1.408       .  A
C798        N799   1.438       .  S
N799        H803   1.046       .  S
N799        H804   1.045       .  S
N802        H805   1.046       .  S
N802        H806   1.046       .  S
C807        C808   1.401       .  A
C807        C812   1.393       .  A
C807        H814   1.084       .  S
C808       C1350   1.464   1_554  S
C808        C809   1.408       .  A
C809        C810   1.404       .  A
C809       N1986   1.438       .  S
C810        C811   1.406       .  A
C810        H815   1.084       .  S
C811        C812   1.411       .  A
C812        N813   1.439       .  S
N813        H817   1.046       .  S
N813        H818   1.046       .  S
N816       C1979   1.438       .  S
N816        H819   1.045       .  S
N816        H820   1.046       .  S
C821        C822   1.409       .  A
C821        C826   1.404       .  A
C821        H828   1.083       .  S
C822        C823   1.413       .  A
C823        C824   1.398       .  A
C823        N830   1.439       .  S
C824        C825   1.403       .  A
C824        H829   1.084       .  S
C825        C826   1.410       .  A
C826        N827   1.438       .  S
N827        H831   1.046       .  S
N827        H832   1.045       .  S
N830        H833   1.046       .  S
N830        H834   1.046       .  S
C835        C836   1.415       .  A
C835        C840   1.417       .  A
C835        H842   1.084       .  S
C836        C837   1.410       .  A
C837        C838   1.404       .  A
C837        N844   1.433       .  S
C838        C839   1.419       .  A
C838        H843   1.083       .  S
C839        C840   1.417       .  A
C840        N841   1.431       .  S
N841        H845   1.046       .  S
N841        H846   1.045       .  S
N844        H847   1.047       .  S
N844        H848   1.044       .  S
C849        C850   1.402       .  A
C849        C854   1.410       .  A
C849       H2026   1.084       .  S
C850        C851   1.420       .  A
C851        C852   1.412       .  A
C851        N858   1.433   1_455  S
C852        C853   1.401       .  A
C852        H857   1.084       .  S
C853        C854   1.426       .  A
C854        N855   1.434       .  S
N855        H860   1.046       .  S
N855       H2029   1.044       .  S
H856       C2019   1.084   1_554  S
N858        H861   1.046       .  S
N858        H862   1.046   1_655  S
H859       N2025   1.044   1_556  S
C863        C864   1.402       .  A
C863        C868   1.418       .  A
C863        H870   1.084       .  S
C864        C865   1.423       .  A
C865        C866   1.417       .  A
C865        N872   1.438       .  S
C866        C867   1.402       .  A
C866        H871   1.083       .  S
C867        C868   1.425       .  A
C868        N869   1.438       .  S
N869        H873   1.046       .  S
N869        H874   1.046       .  S
N872        H875   1.045       .  S
N872        H876   1.046       .  S
C877        C878   1.411       .  A
C877        C882   1.423       .  A
C877        H884   1.083       .  S
C878        C879   1.429       .  A
C879        C880   1.405       .  A
C879        N886   1.434       .  S
C880        C881   1.399       .  A
C880        H885   1.080       .  S
C881        C882   1.416       .  A
C882        N883   1.436       .  S
N883        H887   1.046       .  S
N883        H888   1.045       .  S
N886        H889   1.044       .  S
N886        H890   1.045       .  S
C891        C892   1.409       .  A
C891        C896   1.413       .  A
C891        H898   1.083       .  S
C892        C893   1.416       .  A
C893        C894   1.398       .  A
C893        N900   1.433       .  S
C894        C895   1.399       .  A
C894        H899   1.085       .  S
C895        C896   1.411       .  A
C896        N897   1.437       .  S
N897        H901   1.045       .  S
N897        H902   1.046       .  S
N900        H903   1.046       .  S
N900        H904   1.046       .  S
C905        C906   1.407       .  A
C905        C910   1.409       .  A
C905        H912   1.084       .  S
C906        C907   1.416       .  A
C907        C908   1.394       .  A
C907        N914   1.433       .  S
C908        C909   1.400       .  A
C908        H913   1.085       .  S
C909        C910   1.407       .  A
C910        N911   1.435       .  S
N911        H915   1.045   1_655  S
N911        H916   1.046   1_655  S
N914        H917   1.046       .  S
N914        H918   1.044       .  S
C919        C920   1.418       .  A
C919        C924   1.415       .  A
C919        H926   1.083       .  S
C920        C921   1.415       .  A
C921        C922   1.419       .  A
C921        N928   1.437       .  S
C922        C923   1.420       .  A
C922        H927   1.083       .  S
C923        C924   1.409       .  A
C924        N925   1.437       .  S
N925        H929   1.045       .  S
N925        H930   1.045       .  S
N928        H931   1.043       .  S
N928        H932   1.046       .  S
C933        C934   1.397       .  A
C933        C938   1.413       .  A
C933        H940   1.084       .  S
C934        C935   1.421       .  A
C935        C936   1.425       .  A
C935        N942   1.437       .  S
C936        C937   1.409       .  A
C936        H941   1.083       .  S
C937        C938   1.432       .  A
C938        N939   1.433       .  S
N939        H943   1.046       .  S
N939        H944   1.046       .  S
N942        H945   1.045       .  S
N942        H946   1.046       .  S
C947        C948   1.405       .  A
C947        C952   1.398       .  A
C947        H954   1.084       .  S
C948        C949   1.416       .  A
C949        C950   1.403       .  A
C949        N956   1.439       .  S
C950        C951   1.403       .  A
C950        H955   1.084       .  S
C951        C952   1.415       .  A
C952        N953   1.433       .  S
N953        H957   1.045       .  S
N953        H958   1.046       .  S
N956        H959   1.047       .  S
N956        H960   1.045       .  S
C961        C962   1.417       .  A
C961        C966   1.404       .  A
C961       H2138   1.085       .  S
C962        C963   1.410       .  A
C963        C964   1.415       .  A
C963        N970   1.431       .  S
C964        C965   1.420       .  A
C964        H969   1.083       .  S
C965        C966   1.412       .  A
C966        N967   1.432       .  S
N967        H972   1.045       .  S
N967       H2141   1.046       .  S
H968       C2131   1.084       .  S
N970        H973   1.045       .  S
N970        H974   1.046       .  S
H971       N2137   1.045       .  S
C975        C980   1.404       .  A
C975       C2146   1.401   1_554  A
C975        H982   1.084       .  S
C976        C977   1.404       .  A
C976       C2145   1.400       .  A
C977        C978   1.399       .  A
C977        N984   1.438       .  S
C978       C2149   1.409       .  A
C978        H983   1.083       .  S
C979        C980   1.416       .  A
C979       C2148   1.407   1_554  A
C980        N981   1.438       .  S
N981        H985   1.045       .  S
N981        H986   1.045       .  S
N984        H987   1.046       .  S
N984        H988   1.046       .  S
C989        C990   1.415       .  A
C989        C994   1.420       .  A
C989        H996   1.084       .  S
C990        C991   1.410       .  A
C991        C992   1.414       .  A
C991        N998   1.439       .  S
C992        C993   1.420       .  A
C992        H997   1.082       .  S
C993        C994   1.421       .  A
C994        N995   1.431       .  S
N995        H999   1.045       .  S
N995       H1000   1.045       .  S
N998       H1001   1.045       .  S
N998       H1002   1.046       .  S
C1003      C1004   1.399       .  A
C1003      C1008   1.399       .  A
C1003      H1010   1.084       .  S
C1004      C1005   1.410       .  A
C1005      C1006   1.398       .  A
C1005      N1012   1.439       .  S
C1006      C1007   1.404       .  A
C1006      H1011   1.084       .  S
C1007      C1008   1.420       .  A
C1008      N1009   1.432       .  S
N1009      H1013   1.045       .  S
N1009      H1014   1.045       .  S
N1012      H1015   1.046       .  S
N1012      H1016   1.046       .  S
C1017      C1018   1.404       .  A
C1017      C1022   1.407       .  A
C1017      H1024   1.084       .  S
C1018      C1019   1.412       .  A
C1019      C1020   1.393       .  A
C1019      N1026   1.440       .  S
C1020      C1021   1.398       .  A
C1020      H1025   1.085       .  S
C1021      C1022   1.418       .  A
C1022      N1023   1.438       .  S
N1023      H1027   1.046       .  S
N1023      H1028   1.042       .  S
N1026      H1029   1.045       .  S
N1026      H1030   1.046       .  S
C1031      C1032   1.417       .  A
C1031      C1036   1.420       .  A
C1031      H1038   1.082       .  S
C1032      C1033   1.409       .  A
C1033      C1034   1.407       .  A
C1033      N1040   1.432       .  S
C1034      C1035   1.417       .  A
C1034      H1039   1.084       .  S
C1035      C1036   1.410       .  A
C1036      N1037   1.437       .  S
N1037      H1041   1.046       .  S
N1037      H1042   1.045       .  S
N1040      H1043   1.046       .  S
N1040      H1044   1.045       .  S
C1045      C1046   1.405       .  A
C1045      C1050   1.401       .  A
C1045      H1052   1.084       .  S
C1046      C1047   1.413       .  A
C1047      C1048   1.394       .  A
C1047      N1054   1.433       .  S
C1048      C1049   1.406       .  A
C1048      H1053   1.084       .  S
C1049      C1050   1.420       .  A
C1050      N1051   1.433       .  S
N1051      H1055   1.045       .  S
N1051      H1056   1.045       .  S
N1054      H1057   1.045       .  S
N1054      H1058   1.046       .  S
C1059      C1060   1.407       .  A
C1059      C1064   1.423       .  A
C1059      H1066   1.083       .  S
C1060      C1061   1.433       .  A
C1061      C1062   1.415       .  A
C1061      N1068   1.439       .  S
C1062      C1063   1.401       .  A
C1062      H1067   1.083       .  S
C1063      C1064   1.426       .  A
C1064      N1065   1.437       .  S
N1065      H1069   1.046       .  S
N1065      H1070   1.045       .  S
N1068      H1071   1.045       .  S
N1068      H1072   1.046       .  S
C1073      C1074   1.406       .  A
C1073      C1078   1.402       .  A
C1073      H1080   1.083       .  S
C1074      C1075   1.420       .  A
C1075      C1076   1.394       .  A
C1075      N1082   1.434       .  S
C1076      C1077   1.403       .  A
C1076      H1081   1.084       .  S
C1077      C1078   1.410       .  A
C1078      N1079   1.438       .  S
N1079      H1083   1.046       .  S
N1079      H1084   1.046       .  S
N1082      H1085   1.045       .  S
N1082      H1086   1.046       .  S
C1087      C1088   1.414       .  A
C1087      C1092   1.409       .  A
C1087      H2264   1.083       .  S
C1088      C1089   1.407       .  A
C1089      C1090   1.422       .  A
C1089      N1096   1.436   1_545  S
C1090      C1091   1.422       .  A
C1090      H1095   1.083       .  S
C1091      C1092   1.409       .  A
C1092      N1093   1.432       .  S
N1093      H1098   1.046       .  S
N1093      H2267   1.046       .  S
H1094      C2257   1.084       .  S
N1096      H1099   1.046       .  S
N1096      H1100   1.045       .  S
H1097      N2263   1.046       .  S
C1101      C1102   1.410   1_556  A
C1101      C2276   1.409       .  A
C1101      H1108   1.083       .  S
C1102      C2273   1.410       .  A
C1103      C1104   1.402       .  A
C1103      C2272   1.411       .  A
C1103      N2280   1.433       .  S
C1104      C1105   1.402       .  A
C1104      H1109   1.084       .  S
C1105      C1106   1.406       .  A
C1106      C2271   1.402       .  A
C1106      N1107   1.433       .  S
N1107      H1112   1.045       .  S
N1107      H2281   1.046       .  S
N1110      C2273   1.433       .  S
N1110      H2283   1.046       .  S
N1110      H2284   1.046       .  S
H1111      N2277   1.046       .  S
H1113      N2280   1.046       .  S
H1114      N2280   1.046       .  S
C1115      C1116   1.420       .  A
C1115      C1120   1.417       .  A
C1115      H1122   1.083       .  S
C1116      C1117   1.415       .  A
C1117      C1118   1.411       .  A
C1117      N2294   1.432       .  S
C1118      C1119   1.416       .  A
C1118      H1123   1.084       .  S
C1119      C1120   1.411       .  A
C1120      N1121   1.431       .  S
N1121      H1125   1.045       .  S
N1121      H1126   1.046       .  S
N1124      C2287   1.432       .  S
N1124      H1127   1.046       .  S
N1124      H1128   1.045       .  S
C1129      C1130   1.403       .  A
C1129      C1134   1.403       .  A
C1129      H1136   1.084       .  S
C1130      C1131   1.414       .  A
C1131      C1132   1.403       .  A
C1131      N1138   1.433   1_545  S
C1132      C1133   1.405       .  A
C1132      H1137   1.084       .  S
C1133      C1134   1.413       .  A
C1134      N1135   1.439       .  S
N1135      H1139   1.046       .  S
N1135      H1140   1.046       .  S
N1138      H1141   1.045       .  S
N1138      H1142   1.046   1_565  S
C1143      C1144   1.406       .  A
C1143      C1148   1.415       .  A
C1143      H1150   1.083       .  S
C1144      C1145   1.417       .  A
C1145      C1146   1.398       .  A
C1145      N1152   1.440       .  S
C1146      C1147   1.398       .  A
C1146      H1151   1.084       .  S
C1147      C1148   1.412       .  A
C1148      N1149   1.437       .  S
N1149      H1153   1.046   1_545  S
N1149      H1154   1.046   1_545  S
N1152      H1155   1.046       .  S
N1152      H1156   1.045       .  S
C1157      C1158   1.402       .  A
C1157      C1162   1.390       .  A
C1157      H1164   1.084       .  S
C1158      C2329   1.418   1_554  A
C1159      C1160   1.393       .  A
C1159      C2328   1.420       .  A
C1159      N1166   1.433       .  S
C1160      C1161   1.399       .  A
C1160      H1165   1.085       .  S
C1161      C2332   1.413       .  A
C1162      C2331   1.420       .  A
C1162      N1163   1.433       .  S
N1163      H1167   1.044       .  S
N1163      H1168   1.045       .  S
N1166      H1169   1.045       .  S
N1166      H1170   1.045       .  S
Zn1171     O1175   1.931       .  S
Zn1171     O1176   2.054       .  S
Zn1171     O1180   2.164       .  S
Zn1171     O1187   2.171   1_545  S
Zn1172     O1175   1.916       .  S
Zn1172     O1177   2.020       .  S
Zn1172     O1179   2.002       .  S
Zn1172     O1183   1.988       .  S
Zn1173     O1178   1.957   1_556  S
Zn1173     O1181   1.988       .  S
Zn1173     O1184   2.002       .  S
Zn1174     O1182   2.048       .  S
Zn1174     O1185   2.061       .  S
Zn1174     O1186   2.026       .  S
O1176      C1188   1.279       .  A
O1177      C1189   1.276       .  A
O1179      C1188   1.274       .  A
O1180      C1190   1.293       .  A
O1182      C1191   1.278       .  A
O1184      C1191   1.272       .  A
O1185      C1192   1.280       .  A
O1186      C1193   1.281   1_545  A
C1188      C2303   1.486       .  S
C1189      C2328   1.478       .  S
C1190      C2258   1.510       .  S
C1191      C2317   1.471       .  S
C1192      C2275   1.485       .  S
C1193      C2286   1.514       .  S
Zn1194     O1198   1.903       .  S
Zn1194     O1199   1.971       .  S
Zn1194     O1203   1.975       .  S
Zn1194     O1210   2.009       .  S
Zn1195     O1198   1.939       .  S
Zn1195     O1200   2.142   1_545  S
Zn1195     O1202   2.078       .  S
Zn1195     O1206   2.188       .  S
Zn1196     O1198   1.922       .  S
Zn1196     O1201   2.021       .  S
Zn1196     O1204   1.987       .  S
Zn1196     O1207   2.043       .  S
Zn1197     O1198   1.898       .  S
Zn1197     O1205   1.990       .  S
Zn1197     O1208   1.937       .  S
Zn1197     O1209   1.994       .  S
O1199      C1211   1.270       .  A
O1200      C1212   1.297       .  A
O1201      C1213   1.276       .  A
O1202      C1211   1.280       .  A
O1203      C1213   1.272       .  A
O1204      C1212   1.275   1_545  A
O1205      C1214   1.270       .  A
O1206      C1215   1.298       .  A
O1207      C1214   1.274       .  A
O1208      C1215   1.266       .  A
O1209      C1216   1.271       .  A
O1210      C1216   1.270       .  A
C1211      C2300   1.480       .  S
C1212      C2233   1.506       .  S
C1213      C2216   1.473       .  S
C1214      C2314   1.477       .  S
C1215      C2205   1.516       .  S
C1216      C2244   1.470       .  S
Zn1217     O1221   1.947   1_556  S
Zn1217     O1222   2.150       .  S
Zn1217     O1226   2.184   1_556  S
Zn1217     O1233   2.051       .  S
Zn1218     O1223   2.022       .  S
Zn1218     O1225   2.020       .  S
Zn1218     O1229   2.022       .  S
Zn1219     O1224   1.915       .  S
Zn1219     O1227   1.975       .  S
Zn1219     O1230   2.009       .  S
Zn1220     O1221   1.895   1_556  S
Zn1220     O1228   2.007       .  S
Zn1220     O1231   1.983       .  S
Zn1220     O1232   1.960       .  S
O1222      C1234   1.298       .  A
O1223      C1235   1.274       .  A
O1224      C1236   1.262       .  A
O1227      C1235   1.271       .  A
O1230      C1237   1.274       .  A
O1231      C1238   1.273       .  A
O1232      C1239   1.271       .  A
O1233      C1239   1.276       .  A
C1234      C2160   1.507       .  S
C1235      C2174   1.467       .  S
C1236      C2132   1.508       .  S
C1237      C2272   1.478       .  S
C1238      C2146   1.469       .  S
C1239      C2188   1.477       .  S
Zn1240     O1244   1.896       .  S
Zn1240     O1245   2.009       .  S
Zn1240     O1249   1.969       .  S
Zn1240     O1256   1.977       .  S
Zn1241     O1244   1.900       .  S
Zn1241     O1246   1.993       .  S
Zn1241     O1248   1.991       .  S
Zn1241     O1252   1.961       .  S
Zn1242     O1244   1.893       .  S
Zn1242     O1247   2.039       .  S
Zn1242     O1250   2.018       .  S
Zn1242     O1253   2.000       .  S
Zn1243     O1244   1.916       .  S
Zn1243     O1251   2.184       .  S
Zn1243     O1254   2.174       .  S
Zn1243     O1255   2.029       .  S
O1245      C1257   1.272       .  A
O1246      C1258   1.271       .  A
O1247      C1259   1.276       .  A
O1248      C1257   1.271       .  A
O1249      C1259   1.271       .  A
O1250      C1258   1.277       .  A
O1251      C1260   1.302       .  A
O1252      C1261   1.271       .  A
O1253      C1260   1.277       .  A
O1254      C1261   1.295       .  A
O1255      C1262   1.276       .  A
O1256      C1262   1.270       .  A
C1257      C2118   1.470       .  S
C1258      C2177   1.481       .  S
C1259      C2247   1.484       .  S
C1260      C2107   1.514       .  S
C1261      C2090   1.521       .  S
C1262      C2191   1.483       .  S
Zn1263     O1267   1.889       .  S
Zn1263     O1268   1.933       .  S
Zn1263     O1272   1.990       .  S
Zn1263     O1279   1.971       .  S
Zn1264     O1267   1.922       .  S
Zn1264     O1269   2.066       .  S
Zn1264     O1271   2.176       .  S
Zn1264     O1275   2.131       .  S
Zn1265     O1267   1.874       .  S
Zn1265     O1270   1.990       .  S
Zn1265     O1273   1.956       .  S
Zn1265     O1276   1.976       .  S
Zn1266     O1267   1.906       .  S
Zn1266     O1274   2.030       .  S
Zn1266     O1277   2.016       .  S
Zn1266     O1278   2.038       .  S
O1268      C1280   1.264       .  A
O1269      C1281   1.280       .  A
O1270      C1282   1.267       .  A
O1271      C1280   1.297       .  A
O1272      C1282   1.271       .  A
O1273      C1281   1.270       .  A
O1274      C1283   1.276       .  A
O1275      C1284   1.294       .  A
O1276      C1283   1.273       .  A
O1277      C1284   1.278       .  A
O1278      C1285   1.278       .  A
O1279      C1285   1.270       .  A
C1280      C2034   1.506       .  S
C1281      C2079   1.466       .  S
C1282      C2219   1.473       .  S
C1283      C2121   1.485       .  S
C1284      C2051   1.499   1_655  S
C1285      C2062   1.485       .  S
Zn1286     O1291   2.146       .  S
Zn1286     O1295   2.025       .  S
Zn1286     O1302   2.143       .  S
Zn1287     O1290   1.895   1_556  S
Zn1287     O1292   2.020       .  S
Zn1287     O1294   1.990       .  S
Zn1287     O1298   2.023       .  S
Zn1288     O1293   2.000       .  S
Zn1288     O1296   1.978       .  S
Zn1288     O1299   2.027       .  S
Zn1289     O1290   1.898   1_556  S
Zn1289     O1297   1.981       .  S
Zn1289     O1300   1.992       .  S
Zn1289     O1301   1.954   1_556  S
O1292      C1304   1.276   1_556  A
O1293      C1305   1.273       .  A
O1294      C1303   1.275       .  A
O1295      C1305   1.275       .  A
O1298      C1307   1.276       .  A
O1299      C1306   1.275       .  A
O1300      C1307   1.271       .  A
O1302      C1308   1.292       .  A
C1303      C2020   1.506   1_655  S
C1304      C2331   1.481       .  S
C1305      C2076   1.480       .  S
C1306      C2149   1.483       .  S
C1307      C2065   1.472       .  S
C1308      C2009   1.504       .  S
Zn1309     O1313   1.893       .  S
Zn1309     O1314   2.015       .  S
Zn1309     O1318   2.004       .  S
Zn1309     O1325   2.008       .  S
Zn1310     O1313   1.899       .  S
Zn1310     O1315   2.000       .  S
Zn1310     O1317   1.985       .  S
Zn1310     O1321   2.018       .  S
Zn1311     O1313   1.903       .  S
Zn1311     O1316   2.131       .  S
Zn1311     O1319   1.997       .  S
Zn1311     O1322   2.122       .  S
Zn1312     O1313   1.897       .  S
Zn1312     O1320   1.964       .  S
Zn1312     O1323   1.987       .  S
Zn1312     O1324   1.984       .  S
O1314      C1326   1.275       .  A
O1315      C1327   1.274       .  A
O1316      C1328   1.296       .  A
O1317      C1326   1.272       .  A
O1318      C1328   1.277       .  A
O1319      C1327   1.271       .  A
O1320      C1329   1.267       .  A
O1321      C1330   1.275       .  A
O1322      C1329   1.288       .  A
O1323      C1330   1.273       .  A
O1324      C1331   1.272       .  A
O1325      C1331   1.274       .  A
C1326      C1939   1.482       .  S
C1327      C1967   1.457       .  S
C1328      C1953   1.507       .  S
C1329      C2230   1.515       .  S
C1330      C1992   1.484       .  S
C1331      C1981   1.470       .  S
Zn1332     O1336   1.904       .  S
Zn1332     O1337   2.009       .  S
Zn1332     O1341   1.973       .  S
Zn1332     O1348   1.987       .  S
Zn1333     O1336   1.894       .  S
Zn1333     O1338   1.966       .  S
Zn1333     O1340   2.005       .  S
Zn1333     O1344   1.988       .  S
Zn1334     O1336   1.916       .  S
Zn1334     O1339   2.132       .  S
Zn1334     O1342   2.010       .  S
Zn1334     O1345   2.151       .  S
Zn1335     O1336   1.887       .  S
Zn1335     O1343   1.993       .  S
Zn1335     O1346   2.019       .  S
Zn1335     O1347   2.002       .  S
O1337      C1349   1.272       .  A
O1338      C1350   1.271       .  A
O1339      C1351   1.289       .  A
O1340      C1349   1.272       .  A
O1341      C1351   1.272       .  A
O1342      C1350   1.273       .  A
O1343      C1352   1.274       .  A
O1344      C1353   1.271       .  A
O1345      C1352   1.297       .  A
O1346      C1353   1.276       .  A
O1347      C1354   1.274       .  A
O1348      C1354   1.273       .  A
C1349      C1922   1.479       .  S
C1351      C2163   1.521       .  S
C1352      C1908   1.517       .  S
C1353      C1897   1.479       .  S
C1354      C1964   1.466       .  S
Zn1355     O1359   1.954       .  S
Zn1355     O1360   2.141       .  S
Zn1355     O1364   2.058       .  S
Zn1355     O1371   2.181       .  S
Zn1356     O1359   1.937       .  S
Zn1356     O1361   2.021       .  S
Zn1356     O1363   2.014       .  S
Zn1356     O1367   2.053       .  S
Zn1357     O1359   1.921       .  S
Zn1357     O1362   1.979       .  S
Zn1357     O1365   2.007       .  S
Zn1357     O1368   2.008       .  S
Zn1358     O1359   1.913       .  S
Zn1358     O1366   1.998       .  S
Zn1358     O1369   1.986       .  S
Zn1358     O1370   1.947       .  S
O1360      C1372   1.296       .  A
O1361      C1373   1.275       .  A
O1362      C1374   1.272       .  A
O1363      C1372   1.275       .  A
O1364      C1374   1.278       .  A
O1365      C1373   1.275       .  A
O1366      C1375   1.272       .  A
O1367      C1376   1.277       .  A
O1368      C1375   1.270       .  A
O1369      C1376   1.272       .  A
O1370      C1377   1.264       .  A
O1371      C1377   1.296       .  A
C1372      C1841   1.513       .  S
C1373      C1925   1.484       .  S
C1374      C1866   1.472       .  S
C1375      C1880   1.480       .  S
C1377      C2023   1.504       .  S
Zn1378     O1382   1.926       .  S
Zn1378     O1383   1.982       .  S
Zn1378     O1387   2.010       .  S
Zn1378     O1394   1.995       .  S
Zn1379     O1382   1.915       .  S
Zn1379     O1384   2.002       .  S
Zn1379     O1386   2.016       .  S
Zn1379     O1390   1.986       .  S
Zn1380     O1382   1.931       .  S
Zn1380     O1385   1.986       .  S
Zn1380     O1388   2.024       .  S
Zn1380     O1391   1.973       .  S
Zn1381     O1382   1.948       .  S
Zn1381     O1389   2.166       .  S
Zn1381     O1392   2.170       .  S
Zn1381     O1393   2.038       .  S
O1383      C1395   1.269       .  A
O1384      C1396   1.273       .  A
O1385      C1397   1.271       .  A
O1386      C1395   1.272       .  A
O1387      C1397   1.274       .  A
O1388      C1396   1.273       .  A
O1389      C1398   1.293       .  A
O1390      C1399   1.273       .  A
O1391      C1398   1.270       .  A
O1392      C1399   1.300       .  A
O1393      C1400   1.276       .  A
O1394      C1400   1.273       .  A
C1395      C1813   1.473       .  S
C1396      C1855   1.478       .  S
C1397      C1936   1.471       .  S
C1398      C2104   1.512       .  S
C1399      C1827   1.518       .  S
C1400      C1869   1.481       .  S
Zn1401     O1405   1.926       .  S
Zn1401     O1406   2.132       .  S
Zn1401     O1410   2.148       .  S
Zn1401     O1417   2.027       .  S
Zn1402     O1405   1.911       .  S
Zn1402     O1407   1.993       .  S
Zn1402     O1409   1.975       .  S
Zn1402     O1413   1.988       .  S
Zn1403     O1405   1.907       .  S
Zn1403     O1408   2.001       .  S
Zn1403     O1411   2.021       .  S
Zn1403     O1414   2.030       .  S
Zn1404     O1405   1.906       .  S
Zn1404     O1412   1.981       .  S
Zn1404     O1415   2.025       .  S
Zn1404     O1416   1.996       .  S
O1406      C1418   1.290       .  A
O1407      C1419   1.272       .  A
O1408      C1420   1.275       .  A
O1409      C1418   1.268       .  A
O1410      C1420   1.297       .  A
O1411      C1419   1.275       .  A
O1412      C1421   1.272       .  A
O1413      C1422   1.272       .  A
O1414      C1421   1.276       .  A
O1415      C1422   1.275       .  A
O1416      C1423   1.273       .  A
O1417      C1423   1.275       .  A
C1418      C2048   1.510       .  S
C1419      C1799   1.467       .  S
C1420      C1768   1.510       .  S
C1421      C1995   1.474       .  S
C1422      C1810   1.481       .  S
C1423      C1782   1.473       .  S
Zn1424     O1428   1.926       .  S
Zn1424     O1429   2.146       .  S
Zn1424     O1433   2.025       .  S
Zn1424     O1440   2.149       .  S
Zn1425     O1428   1.902       .  S
Zn1425     O1430   1.996       .  S
Zn1425     O1432   1.987       .  S
Zn1425     O1436   2.020       .  S
Zn1426     O1428   1.894       .  S
Zn1426     O1431   1.969       .  S
Zn1426     O1434   1.998       .  S
Zn1426     O1437   1.963       .  S
Zn1427     O1428   1.901       .  S
Zn1427     O1435   2.047       .  S
Zn1427     O1438   2.008       .  S
Zn1427     O1439   2.009       .  S
O1429      C1441   1.291       .  A
O1430      C1442   1.272       .  A
O1431      C1443   1.270       .  A
O1432      C1441   1.272       .  A
O1433      C1443   1.275       .  A
O1434      C1442   1.274       .  A
O1435      C1444   1.277       .  A
O1436      C1445   1.276       .  A
O1437      C1444   1.268       .  A
O1438      C1445   1.274       .  A
O1439      C1446   1.278       .  A
O1440      C1446   1.298       .  A
C1441      C2289   1.510       .  S
C1442      C1894   1.482       .  S
C1444      C1883   1.468       .  S
C1445      C1785   1.476       .  S
C1446      C1754   1.509       .  S
Zn1447     O1451   1.892       .  S
Zn1447     O1452   1.979       .  S
Zn1447     O1456   1.952       .  S
Zn1447     O1463   1.996       .  S
Zn1448     O1451   1.928       .  S
Zn1448     O1453   2.160       .  S
Zn1448     O1455   2.032       .  S
Zn1448     O1459   2.162       .  S
Zn1449     O1451   1.912       .  S
Zn1449     O1454   2.051       .  S
Zn1449     O1457   1.999       .  S
Zn1449     O1460   2.009       .  S
Zn1450     O1451   1.914       .  S
Zn1450     O1458   1.994       .  S
Zn1450     O1461   1.960       .  S
Zn1450     O1462   1.999       .  S
O1452      C1464   1.270       .  A
O1453      C1465   1.299       .  A
O1454      C1466   1.278   1_545  A
O1455      C1464   1.275       .  A
O1456      C1466   1.268   1_545  A
O1457      C1465   1.276       .  A
O1458      C1467   1.272       .  A
O1459      C1468   1.293       .  A
O1460      C1467   1.274       .  A
O1461      C1468   1.267       .  A
O1462      C1469   1.272       .  A
O1463      C1469   1.272       .  A
C1464      C1712   1.477       .  S
C1465      C2202   1.518       .  S
C1466      C1701   1.475       .  S
C1467      C1729   1.466       .  S
C1468      C1838   1.523       .  S
C1469      C1743   1.480       .  S
Zn1470     O1474   1.933       .  S
Zn1470     O1475   2.149       .  S
Zn1470     O1479   2.147       .  S
Zn1470     O1486   2.019       .  S
Zn1471     O1474   1.901       .  S
Zn1471     O1476   1.995       .  S
Zn1471     O1478   1.978       .  S
Zn1471     O1482   2.023       .  S
Zn1472     O1474   1.913       .  S
Zn1472     O1477   1.974       .  S
Zn1472     O1480   2.024       .  S
Zn1472     O1483   1.994   1_545  S
Zn1473     O1474   1.905       .  S
Zn1473     O1481   2.013       .  S
Zn1473     O1484   1.973       .  S
Zn1473     O1485   1.988       .  S
O1475      C1487   1.298       .  A
O1476      C1488   1.272       .  A
O1477      C1489   1.271       .  A
O1478      C1487   1.273       .  A
O1479      C1489   1.292       .  A
O1480      C1488   1.275       .  A
O1481      C1490   1.273   1_545  A
O1482      C1491   1.274       .  A
O1483      C1490   1.274       .  A
O1484      C1491   1.270       .  A
O1485      C1492   1.271       .  A
O1486      C1492   1.273       .  A
C1487      C2135   1.506       .  S
C1489      C1771   1.510   1_545  S
C1490      C1684   1.487       .  S
C1491      C1673   1.463       .  S
C1492      C1726   1.469       .  S
Zn1493     O1497   1.887       .  S
Zn1493     O1498   1.999       .  S
Zn1493     O1502   1.991       .  S
Zn1493     O1509   2.021       .  S
Zn1494     O1497   1.906       .  S
Zn1494     O1499   2.149       .  S
Zn1494     O1501   2.009       .  S
Zn1494     O1505   2.138       .  S
Zn1495     O1497   1.888       .  S
Zn1495     O1500   2.037       .  S
Zn1495     O1503   2.019       .  S
Zn1495     O1506   2.027       .  S
Zn1496     O1497   1.890       .  S
Zn1496     O1504   1.979       .  S
Zn1496     O1507   1.977       .  S
Zn1496     O1508   1.990       .  S
O1498      C1510   1.275       .  A
O1499      C1511   1.298       .  A
O1500      C1512   1.280       .  A
O1501      C1510   1.275       .  A
O1502      C1512   1.274       .  A
O1503      C1511   1.277       .  A
O1504      C1513   1.274       .  A
O1505      C1514   1.290       .  A
O1506      C1513   1.278       .  A
O1507      C1514   1.271       .  A
O1508      C1515   1.269       .  A
O1509      C1515   1.276       .  A
C1510      C1642   1.466       .  S
C1511      C2093   1.509       .  S
C1512      C1628   1.476       .  S
C1513      C1656   1.470       .  S
C1514      C1757   1.514   1_655  S
C1515      C1698   1.486   1_655  S
Zn1516     O1520   1.879       .  S
Zn1516     O1521   1.990       .  S
Zn1516     O1525   2.014       .  S
Zn1516     O1532   1.998       .  S
Zn1517     O1520   1.922       .  S
Zn1517     O1522   2.011       .  S
Zn1517     O1524   2.165       .  S
Zn1517     O1528   2.143       .  S
Zn1518     O1520   1.902       .  S
Zn1518     O1523   1.980       .  S
Zn1518     O1526   1.991       .  S
Zn1518     O1529   2.016       .  S
Zn1519     O1520   1.897       .  S
Zn1519     O1527   1.993       .  S
Zn1519     O1530   1.954       .  S
Zn1519     O1531   1.996       .  S
O1521      C1533   1.275       .  A
O1522      C1534   1.273       .  A
O1523      C1535   1.271       .  A
O1524      C1533   1.299       .  A
O1525      C1535   1.274       .  A
O1526      C1534   1.273       .  A
O1527      C1536   1.272       .  A
O1528      C1537   1.292       .  A
O1529      C1536   1.274       .  A
O1530      C1537   1.269       .  A
O1531      C1538   1.272       .  A
O1532      C1538   1.274       .  A
C1533      C2006   1.519       .  S
C1534      C1659   1.461       .  S
C1535      C1687   1.476   1_655  S
C1536      C1614   1.487       .  S
C1537      C1950   1.507       .  S
Zn1539     O1543   1.908       .  S
Zn1539     O1544   1.969       .  S
Zn1539     O1548   2.010       .  S
Zn1539     O1555   1.988       .  S
Zn1540     O1543   1.907       .  S
Zn1540     O1545   2.026       .  S
Zn1540     O1547   2.017       .  S
Zn1540     O1551   1.988       .  S
Zn1541     O1543   1.918       .  S
Zn1541     O1546   2.000   1_545  S
Zn1541     O1549   2.023       .  S
Zn1541     O1552   1.979       .  S
Zn1542     O1543   1.946       .  S
Zn1542     O1550   2.137       .  S
Zn1542     O1553   2.160       .  S
Zn1542     O1554   2.058       .  S
O1544      C1556   1.269       .  A
O1545      C1557   1.276       .  A
O1546      C1558   1.271       .  A
O1547      C1556   1.274       .  A
O1548      C1558   1.273   1_545  A
O1549      C1557   1.275       .  A
O1550      C1559   1.291       .  A
O1551      C1560   1.273       .  A
O1552      C1559   1.271       .  A
O1553      C1560   1.298       .  A
O1554      C1561   1.278       .  A
O1555      C1561   1.270       .  A
C1556      C1740   1.477   1_655  S
C1557      C1603   1.478       .  S
C1558      C1631   1.482       .  S
C1559      C1911   1.498   1_545  S
C1560      C2037   1.514       .  S
C1561      C1586   1.490       .  S
Zn1562     O1566   1.898       .  S
Zn1562     O1567   1.973       .  S
Zn1562     O1571   2.000       .  S
Zn1562     O1578   2.004       .  S
Zn1563     O1566   1.935       .  S
Zn1563     O1568   2.150       .  S
Zn1563     O1570   2.073       .  S
Zn1563     O1574   2.194       .  S
Zn1564     O1566   1.903       .  S
Zn1564     O1569   2.023   1_545  S
Zn1564     O1572   2.016       .  S
Zn1564     O1575   2.050       .  S
Zn1565     O1566   1.899       .  S
Zn1565     O1573   1.989       .  S
Zn1565     O1576   1.926       .  S
Zn1565     O1577   1.990       .  S
O1567      C1579   1.272       .  A
O1568      C1580   1.297       .  A
O1569      C1581   1.278       .  A
O1570      C1579   1.281       .  A
O1571      C1581   1.274   1_545  A
O1572      C1580   1.278       .  A
O1573      C1582   1.272       .  A
O1574      C1583   1.299       .  A
O1575      C1582   1.277       .  A
O1576      C1583   1.264       .  A
O1577      C1584   1.270       .  A
O1578      C1584   1.270       .  A
C1580      C2261   1.521       .  S
C1581      C1617   1.475       .  S
C1582      C1600   1.492       .  S
C1583      C1824   1.511       .  S
C1584      C1670   1.473   1_655  S
C1585      C1586   1.411       .  A
C1585      C1590   1.415       .  A
C1585      H1592   1.083       .  S
C1586      C1587   1.420       .  A
C1587      C1588   1.392       .  A
C1587      N1594   1.434       .  S
C1588      C1589   1.400       .  A
C1588      H1593   1.085       .  S
C1589      C1590   1.410       .  A
N1591      H1595   1.046       .  S
N1591      H1596   1.045       .  S
N1594      H1597   1.046       .  S
N1594      H1598   1.044       .  S
C1599      C1600   1.408       .  A
C1599      C1604   1.401       .  A
C1599      H1606   1.083       .  S
C1600      C1601   1.417       .  A
C1601      C1602   1.413       .  A
C1601      N1608   1.437       .  S
C1602      C1603   1.403       .  A
C1602      H1607   1.084       .  S
C1603      C1604   1.409       .  A
C1604      N1605   1.439       .  S
N1605      H1609   1.046       .  S
N1605      H1610   1.046       .  S
N1608      H1611   1.046       .  S
N1608      H1612   1.046       .  S
C1613      C1614   1.409       .  A
C1613      C1618   1.398       .  A
C1613      H1620   1.084       .  S
C1614      C1615   1.417       .  A
C1615      C1616   1.403       .  A
C1615      N1622   1.438       .  S
C1616      C1617   1.402       .  A
C1616      H1621   1.084       .  S
C1617      C1618   1.412       .  A
C1618      N1619   1.433       .  S
N1619      H1623   1.044       .  S
N1619      H1624   1.046       .  S
N1622      H1625   1.045       .  S
N1622      H1626   1.046       .  S
C1627      C1628   1.402       .  A
C1627      C1632   1.402       .  A
C1627      H1634   1.084       .  S
C1628      C1629   1.412       .  A
C1629      C1630   1.403       .  A
C1629      N1636   1.438       .  S
C1630      C1631   1.405       .  A
C1630      H1635   1.083       .  S
C1631      C1632   1.413       .  A
C1632      N1633   1.433       .  S
N1633      H1637   1.045       .  S
N1633      H1638   1.046       .  S
N1636      H1639   1.046       .  S
N1636      H1640   1.045       .  S
C1641      C1642   1.401       .  A
C1641      C1646   1.401       .  A
C1641      H1648   1.084       .  S
C1642      C1643   1.410       .  A
C1643      C1644   1.399       .  A
C1643      N1650   1.439       .  S
C1644      C1645   1.404       .  A
C1644      H1649   1.084       .  S
C1645      C1646   1.409       .  A
C1646      N1647   1.432       .  S
N1647      H1651   1.046       .  S
N1650      H1653   1.046       .  S
N1650      H1654   1.046       .  S
C1655      C1656   1.403       .  A
C1655      C1660   1.394       .  A
C1655      H1662   1.084       .  S
C1656      C1657   1.409       .  A
C1657      C1658   1.402       .  A
C1657      N1664   1.433       .  S
C1658      C1659   1.402       .  A
C1658      H1663   1.084       .  S
C1659      C1660   1.409       .  A
C1660      N1661   1.433       .  S
N1661      H1665   1.045       .  S
N1661      H1666   1.046       .  S
N1664      H1667   1.046       .  S
N1664      H1668   1.046       .  S
C1669      C1670   1.405       .  A
C1669      C1674   1.405       .  A
C1669      H1676   1.084       .  S
C1670      C1671   1.416       .  A
C1671      C1672   1.392       .  A
C1671      N1678   1.434       .  S
C1672      C1673   1.399       .  A
C1672      H1677   1.085       .  S
C1673      C1674   1.409       .  A
C1674      N1675   1.438       .  S
N1675      H1679   1.046       .  S
N1675      H1680   1.046       .  S
N1678      H1681   1.044       .  S
N1678      H1682   1.046       .  S
C1683      C1684   1.408       .  A
C1683      C1688   1.396       .  A
C1683      H1690   1.084       .  S
C1684      C1685   1.420       .  A
C1685      C1686   1.395       .  A
C1685      N1692   1.432       .  S
C1686      C1687   1.403       .  A
C1686      H1691   1.084       .  S
C1687      C1688   1.414       .  A
C1688      N1689   1.433       .  S
N1689      H1693   1.046   1_455  S
N1689      H1694   1.045       .  S
N1692      H1695   1.045       .  S
N1692      H1696   1.045       .  S
C1697      C1698   1.402       .  A
C1697      C1702   1.392       .  A
C1697      H1704   1.084       .  S
C1698      C1699   1.421       .  A
C1699      C1700   1.411       .  A
C1699      N1706   1.438       .  S
C1700      C1701   1.402       .  A
C1700      H1705   1.084       .  S
C1701      C1702   1.410       .  A
C1702      N1703   1.434       .  S
N1703      H1707   1.046       .  S
N1703      H1708   1.046       .  S
N1706      H1709   1.045       .  S
N1706      H1710   1.046       .  S
C1711      C1712   1.406       .  A
C1711      C1716   1.404       .  A
C1711      H1718   1.084       .  S
C1712      C1713   1.412       .  A
C1713      C1714   1.404       .  A
C1713      N1720   1.438       .  S
C1714      C1715   1.401       .  A
C1714      H1719   1.084       .  S
C1715      C1716   1.408       .  A
C1716      N1717   1.438       .  S
N1717      H1721   1.046   1_545  S
N1717      H1722   1.046       .  S
N1720      H1723   1.045       .  S
N1720      H1724   1.046       .  S
C1725      C1726   1.402       .  A
C1725      C1730   1.403       .  A
C1725      H1732   1.084       .  S
C1726      C1727   1.409       .  A
C1727      C1728   1.400       .  A
C1727      N1734   1.433       .  S
C1728      C1729   1.400       .  A
C1728      H1733   1.084       .  S
C1729      C1730   1.410       .  A
C1730      N1731   1.438       .  S
N1731      H1735   1.046       .  S
N1731      H1736   1.046       .  S
N1734      H1737   1.045       .  S
N1734      H1738   1.046       .  S
C1739      C1740   1.403       .  A
C1739      C1744   1.401       .  A
C1739      H1746   1.084       .  S
C1740      C1741   1.415       .  A
C1741      C1742   1.398       .  A
C1741      N1748   1.439       .  S
C1742      C1743   1.404       .  A
C1742      H1747   1.083       .  S
C1743      C1744   1.412       .  A
C1744      N1745   1.432       .  S
N1745      H1749   1.046       .  S
N1745      H1750   1.046       .  S
N1748      H1751   1.045       .  S
N1748      H1752   1.046       .  S
C1753      C1754   1.417       .  A
C1753      C1758   1.415       .  A
C1753      H1760   1.084       .  S
C1754      C1755   1.410       .  A
C1755      C1756   1.415       .  A
C1755      N1762   1.438       .  S
C1756      C1757   1.418       .  A
C1756      H1761   1.084       .  S
C1757      C1758   1.414       .  A
C1758      N1759   1.431   1_455  S
N1759      H1763   1.046       .  S
N1759      H1764   1.045       .  S
N1762      H1765   1.045       .  S
N1762      H1766   1.046       .  S
C1767      C1768   1.419       .  A
C1767      C1772   1.422       .  A
C1767      H1774   1.083       .  S
C1768      C1769   1.406       .  A
C1769      C1770   1.411       .  A
C1769      N1776   1.432       .  S
C1770      C1771   1.417       .  A
C1770      H1775   1.084       .  S
C1771      C1772   1.410       .  A
C1772      N1773   1.436   1_565  S
N1773      H1777   1.046   1_545  S
N1773      H1778   1.045       .  S
N1776      H1779   1.046       .  S
N1776      H1780   1.046       .  S
C1781      C1782   1.403       .  A
C1781      C1786   1.398       .  A
C1781      H1788   1.084       .  S
C1782      C1783   1.410       .  A
C1783      C1784   1.406       .  A
C1783      N1790   1.438       .  S
C1784      C1785   1.405       .  A
C1784      H1789   1.084       .  S
C1785      C1786   1.413       .  A
C1786      N1787   1.433       .  S
N1787      H1791   1.046       .  S
N1787      H1792   1.045       .  S
N1790      H1793   1.045       .  S
N1790      H1794   1.046       .  S
C1795      C1796   1.404       .  A
C1795      C1800   1.394       .  A
C1795      H1802   1.084       .  S
C1796      C1797   1.412       .  A
C1797      C1798   1.405       .  A
C1797      N1804   1.438       .  S
C1798      C1799   1.402       .  A
C1798      H1803   1.084       .  S
C1799      C1800   1.410       .  A
C1800      N1801   1.433       .  S
N1801      H1805   1.044       .  S
N1801      H1806   1.046       .  S
N1804      H1808   1.045       .  S
C1809      C1810   1.406       .  A
C1809      C1814   1.397       .  A
C1809      H1816   1.084       .  S
C1810      C1811   1.414       .  A
C1811      C1812   1.403       .  A
C1811      N1818   1.438       .  S
C1812      C1813   1.403       .  A
C1812      H1817   1.084       .  S
C1813      C1814   1.413       .  A
C1814      N1815   1.433       .  S
N1815      H1819   1.045       .  S
N1815      H1820   1.045       .  S
N1818      H1821   1.046       .  S
N1818      H1822   1.046       .  S
C1823      C1824   1.420   1_455  A
C1823      C1828   1.417       .  A
C1823      H1830   1.084   1_455  S
C1824      C1825   1.405   1_655  A
C1825      C1826   1.418       .  A
C1825      N1832   1.431   1_455  S
C1826      C1827   1.422       .  A
C1826      H1831   1.083       .  S
C1827      C1828   1.410       .  A
C1828      N1829   1.437       .  S
N1829      H1833   1.046       .  S
N1829      H1834   1.045       .  S
N1832      H1835   1.046   1_655  S
N1832      H1836   1.045       .  S
C1837      C1838   1.409       .  A
C1837      C1842   1.424       .  A
C1837      H1844   1.083       .  S
C1838      C1839   1.431       .  A
C1839      C1840   1.409       .  A
C1839      N1846   1.434       .  S
C1840      C1841   1.398       .  A
C1840      H1845   1.082       .  S
C1841      C1842   1.422       .  A
C1842      N1843   1.431       .  S
N1843      H1847   1.046       .  S
N1843      H1848   1.045       .  S
N1846      H1849   1.046       .  S
N1846      H1850   1.045       .  S
C1851      C1852   1.408       .  A
C1851      C1856   1.396       .  A
C1851      H1858   1.083       .  S
C1852      C1853   1.418       .  A
C1853      C1854   1.414       .  A
C1854      C1855   1.404       .  A
C1854      H1859   1.083       .  S
C1855      C1856   1.409       .  A
C1856      N1857   1.440       .  S
N1857      H1861   1.046       .  S
N1857      H1862   1.046       .  S
N1860      H1863   1.046       .  S
N1860      H1864   1.046       .  S
C1865      C1866   1.401       .  A
C1865      C1870   1.403       .  A
C1865      H1872   1.084       .  S
C1866      C1867   1.411       .  A
C1867      C1868   1.401       .  A
C1867      N1874   1.430       .  S
C1868      C1869   1.405       .  A
C1868      H1873   1.084       .  S
C1869      C1870   1.414       .  A
C1870      N1871   1.438       .  S
N1871      H1875   1.045       .  S
N1871      H1876   1.046       .  S
N1874      H1877   1.046       .  S
N1874      H1878   1.045       .  S
C1879      C1880   1.407       .  A
C1879      C1884   1.408       .  A
C1879      H1886   1.084       .  S
C1880      C1881   1.411       .  A
C1881      C1882   1.397       .  A
C1881      N1888   1.433       .  S
C1882      C1883   1.400       .  A
C1882      H1887   1.084       .  S
C1883      C1884   1.410       .  A
C1884      N1885   1.438       .  S
N1885      H1889   1.046       .  S
N1885      H1890   1.046       .  S
N1888      H1891   1.046       .  S
N1888      H1892   1.046       .  S
C1893      C1894   1.405       .  A
C1893      C1898   1.396       .  A
C1893      H1900   1.084       .  S
C1894      C1895   1.416       .  A
C1895      C1896   1.405       .  A
C1895      N1902   1.438       .  S
C1896      C1897   1.404       .  A
C1896      H1901   1.083       .  S
C1897      C1898   1.411       .  A
C1898      N1899   1.433       .  S
N1899      H1903   1.046       .  S
N1899      H1904   1.046       .  S
N1902      H1905   1.046       .  S
N1902      H1906   1.046       .  S
C1907      C1908   1.403       .  A
C1907      C1912   1.413       .  A
C1907      H1914   1.083       .  S
C1908      C1909   1.432       .  A
C1909      C1910   1.417       .  A
C1909      N1916   1.432       .  S
C1910      C1911   1.397       .  A
C1910      H1915   1.084       .  S
C1911      C1912   1.417       .  A
C1912      N1913   1.431       .  S
N1913      H1917   1.045       .  S
N1913      H1918   1.045       .  S
N1916      H1919   1.046       .  S
N1916      H1920   1.046       .  S
C1921      C1922   1.404       .  A
C1921      C1926   1.404       .  A
C1921      H1928   1.084       .  S
C1922      C1923   1.408       .  A
C1923      C1924   1.402       .  A
C1923      N1930   1.433       .  S
C1924      C1925   1.406       .  A
C1924      H1929   1.084       .  S
C1925      C1926   1.416       .  A
C1926      N1927   1.438       .  S
N1927      H1931   1.046       .  S
N1927      H1932   1.045       .  S
N1930      H1933   1.046       .  S
N1930      H1934   1.045       .  S
C1935      C1936   1.403       .  A
C1935      C1940   1.403       .  A
C1935      H1942   1.084       .  S
C1936      C1937   1.408       .  A
C1937      C1938   1.401       .  A
C1937      N1944   1.439       .  S
C1938      C1939   1.408       .  A
C1938      H1943   1.083       .  S
C1939      C1940   1.414       .  A
C1940      N1941   1.438       .  S
N1941      H1945   1.046       .  S
N1941      H1946   1.046       .  S
N1944      H1947   1.046       .  S
N1944      H1948   1.046       .  S
C1949      C1950   1.416       .  A
C1949      C1954   1.403       .  A
C1949      H1956   1.083       .  S
C1950      C1951   1.408       .  A
C1951      C1952   1.422       .  A
C1951      N1958   1.436       .  S
C1952      C1953   1.420       .  A
C1952      H1957   1.083       .  S
C1953      C1954   1.411       .  A
C1954      N1955   1.432       .  S
N1955      H1959   1.046       .  S
N1955      H1960   1.045       .  S
N1958      H1961   1.045       .  S
N1958      H1962   1.046       .  S
C1963      C1964   1.403       .  A
C1963      C1968   1.401       .  A
C1963      H1970   1.084       .  S
C1964      C1965   1.409       .  A
C1965      C1966   1.399       .  A
C1965      N1972   1.433       .  S
C1966      C1967   1.399       .  A
C1966      H1971   1.084       .  S
C1967      C1968   1.405       .  A
C1968      N1969   1.437       .  S
N1969      H1973   1.046       .  S
N1969      H1974   1.046       .  S
N1972      H1975   1.046       .  S
N1972      H1976   1.046       .  S
C1977      C1978   1.404       .  A
C1977      C1982   1.397       .  A
C1977      H1984   1.084       .  S
C1978      C1979   1.411       .  A
C1979      C1980   1.404       .  A
C1980      C1981   1.404       .  A
C1980      H1985   1.084       .  S
C1981      C1982   1.410       .  A
C1982      N1983   1.439       .  S
N1983      H1987   1.046       .  S
N1983      H1988   1.046       .  S
N1986      H1989   1.046       .  S
N1986      H1990   1.046       .  S
C1991      C1992   1.409       .  A
C1991      C1996   1.405       .  A
C1991      H1998   1.083       .  S
C1992      C1993   1.411       .  A
C1993      C1994   1.398       .  A
C1993      N2000   1.433       .  S
C1994      C1995   1.403       .  A
C1994      H1999   1.084       .  S
C1995      C1996   1.409       .  A
C1996      N1997   1.438       .  S
N1997      H2001   1.046       .  S
N1997      H2002   1.045       .  S
N2000      H2003   1.046       .  S
N2000      H2004   1.046       .  S
C2005      C2006   1.422       .  A
C2005      C2010   1.415       .  A
C2005      H2012   1.083       .  S
C2006      C2007   1.414       .  A
C2007      C2008   1.411       .  A
C2007      N2014   1.432       .  S
C2008      C2009   1.414       .  A
C2008      H2013   1.082       .  S
C2009      C2010   1.411       .  A
C2010      N2011   1.437       .  S
N2011      H2015   1.048   1_655  S
N2011      H2016   1.041       .  S
N2014      H2017   1.047       .  S
N2014      H2018   1.043       .  S
C2019      C2020   1.403       .  A
C2019      C2024   1.414       .  A
C2020      C2021   1.419       .  A
C2021      C2022   1.416       .  A
C2021      N2028   1.433   1_455  S
C2022      C2023   1.404       .  A
C2022      H2027   1.084       .  S
C2023      C2024   1.426       .  A
C2024      N2025   1.433   1_556  S
N2025      H2030   1.046       .  S
N2028      H2031   1.045       .  S
N2028      H2032   1.046   1_655  S
C2033      C2034   1.399       .  A
C2033      C2038   1.417       .  A
C2033      H2040   1.083       .  S
C2034      C2035   1.427       .  A
C2035      C2036   1.417       .  A
C2035      N2042   1.439       .  S
C2036      C2037   1.402       .  A
C2036      H2041   1.083       .  S
C2037      C2038   1.430       .  A
C2038      N2039   1.438       .  S
N2039      H2043   1.046       .  S
N2039      H2044   1.046       .  S
N2042      H2045   1.045       .  S
N2042      H2046   1.046       .  S
C2047      C2048   1.411       .  A
C2047      C2052   1.422       .  A
C2047      H2054   1.083       .  S
C2048      C2049   1.426       .  A
C2049      C2050   1.407       .  A
C2049      N2056   1.434       .  S
C2050      C2051   1.402       .  A
C2050      H2055   1.083   1_455  S
C2051      C2052   1.414       .  A
C2052      N2053   1.436       .  S
N2053      H2057   1.046       .  S
N2053      H2058   1.046       .  S
N2056      H2059   1.043       .  S
N2056      H2060   1.046       .  S
C2061      C2062   1.408       .  A
C2061      C2066   1.410       .  A
C2061      H2068   1.083       .  S
C2062      C2063   1.416       .  A
C2063      C2064   1.394       .  A
C2063      N2070   1.434       .  S
C2064      C2065   1.397       .  A
C2064      H2069   1.085       .  S
C2065      C2066   1.411       .  A
C2066      N2067   1.437       .  S
N2067      H2071   1.046       .  S
N2067      H2072   1.046       .  S
N2070      H2073   1.046       .  S
N2070      H2074   1.046       .  S
C2075      C2076   1.408       .  A
C2075      C2080   1.408       .  A
C2075      H2082   1.084       .  S
C2076      C2077   1.417       .  A
C2077      C2078   1.395       .  A
C2077      N2084   1.434       .  S
C2078      C2079   1.400       .  A
C2078      H2083   1.085       .  S
C2079      C2080   1.406       .  A
C2080      N2081   1.437       .  S
N2081      H2085   1.046   1_655  S
N2081      H2086   1.045   1_655  S
N2084      H2087   1.046       .  S
N2084      H2088   1.044       .  S
C2089      C2090   1.419       .  A
C2089      C2094   1.413       .  A
C2089      H2096   1.083       .  S
C2090      C2091   1.416       .  A
C2091      C2092   1.421       .  A
C2091      N2098   1.431       .  S
C2092      C2093   1.418       .  A
C2092      H2097   1.083       .  S
C2093      C2094   1.408       .  A
C2094      N2095   1.438       .  S
N2095      H2099   1.045       .  S
N2095      H2100   1.045       .  S
N2098      H2101   1.045       .  S
N2098      H2102   1.046       .  S
C2103      C2104   1.406       .  A
C2103      C2108   1.408       .  A
C2103      H2110   1.084       .  S
C2104      C2105   1.422       .  A
C2105      C2106   1.432       .  A
C2105      N2112   1.436       .  S
C2106      C2107   1.412       .  A
C2106      H2111   1.083       .  S
C2107      C2108   1.416       .  A
C2108      N2109   1.433       .  S
N2109      H2113   1.046       .  S
N2109      H2114   1.046       .  S
N2112      H2115   1.045       .  S
N2112      H2116   1.046       .  S
C2117      C2118   1.401       .  A
C2117      C2122   1.398       .  A
C2117      H2124   1.084       .  S
C2118      C2119   1.408       .  A
C2119      C2120   1.400       .  A
C2119      N2126   1.439       .  S
C2120      C2121   1.408       .  A
C2120      H2125   1.083       .  S
C2121      C2122   1.419       .  A
C2122      N2123   1.432       .  S
N2123      H2127   1.046       .  S
N2123      H2128   1.045       .  S
N2126      H2129   1.047       .  S
N2126      H2130   1.045       .  S
C2131      C2132   1.420       .  A
C2131      C2136   1.407       .  A
C2132      C2133   1.412       .  A
C2133      C2134   1.413       .  A
C2133      N2140   1.431       .  S
C2134      C2135   1.418       .  A
C2134      H2139   1.084       .  S
C2135      C2136   1.410       .  A
C2136      N2137   1.432       .  S
N2137      H2142   1.045       .  S
N2140      H2143   1.045       .  S
N2140      H2144   1.045       .  S
C2145      C2150   1.404       .  A
C2145      H2152   1.084       .  S
C2146      C2147   1.408       .  A
C2147      C2148   1.400       .  A
C2147      N2154   1.438       .  S
C2148      H2153   1.083       .  S
C2149      C2150   1.417       .  A
C2150      N2151   1.438       .  S
N2151      H2155   1.045       .  S
N2151      H2156   1.044       .  S
N2154      H2157   1.046       .  S
N2154      H2158   1.046       .  S
C2159      C2160   1.414       .  A
C2159      C2164   1.418       .  A
C2159      H2166   1.084   1_556  S
C2160      C2161   1.408       .  A
C2161      C2162   1.411       .  A
C2161      N2168   1.437       .  S
C2162      C2163   1.418       .  A
C2162      H2167   1.083       .  S
C2163      C2164   1.422       .  A
C2164      N2165   1.431       .  S
N2165      H2169   1.045       .  S
N2165      H2170   1.045       .  S
N2168      H2171   1.046       .  S
N2168      H2172   1.046       .  S
C2173      C2174   1.400       .  A
C2173      C2178   1.402       .  A
C2173      H2180   1.084       .  S
C2174      C2175   1.409       .  A
C2175      C2176   1.396       .  A
C2175      N2182   1.440       .  S
C2176      C2177   1.403       .  A
C2176      H2181   1.083       .  S
C2177      C2178   1.421       .  A
C2178      N2179   1.432       .  S
N2179      H2183   1.045       .  S
N2179      H2184   1.045       .  S
N2182      H2185   1.046       .  S
N2182      H2186   1.046       .  S
C2187      C2188   1.401       .  A
C2187      C2192   1.390       .  A
C2187      H2194   1.085       .  S
C2188      C2189   1.410       .  A
C2189      C2190   1.409       .  A
C2189      N2196   1.436       .  S
C2190      C2191   1.408       .  A
C2190      H2195   1.083       .  S
C2191      C2192   1.419       .  A
C2192      N2193   1.434       .  S
N2193      H2197   1.044       .  S
N2193      H2198   1.046       .  S
N2196      H2199   1.045       .  S
N2196      H2200   1.046       .  S
C2201      C2202   1.422       .  A
C2201      C2206   1.423       .  A
C2201      H2208   1.083       .  S
C2202      C2203   1.412       .  A
C2203      C2204   1.407       .  A
C2203      N2210   1.432       .  S
C2204      C2205   1.420       .  A
C2204      H2209   1.084       .  S
C2205      C2206   1.410       .  A
C2206      N2207   1.436       .  S
N2207      H2211   1.045       .  S
N2207      H2212   1.046   1_545  S
N2210      H2213   1.046       .  S
N2210      H2214   1.045       .  S
C2215      C2216   1.405       .  A
C2215      C2220   1.395       .  A
C2215      H2222   1.084       .  S
C2216      C2217   1.415       .  A
C2217      C2218   1.394       .  A
C2217      N2224   1.433       .  S
C2218      C2219   1.404       .  A
C2218      H2223   1.084       .  S
C2219      C2220   1.414       .  A
C2220      N2221   1.433       .  S
N2221      H2225   1.045       .  S
N2221      H2226   1.046       .  S
N2224      H2227   1.045       .  S
N2224      H2228   1.046       .  S
C2229      C2230   1.407       .  A
C2229      C2234   1.420       .  A
C2229      H2236   1.083       .  S
C2230      C2231   1.431       .  A
C2231      C2232   1.410       .  A
C2231      N2238   1.439       .  S
C2232      C2233   1.397       .  A
C2232      H2237   1.082       .  S
C2233      C2234   1.423       .  A
C2234      N2235   1.438       .  S
N2235      H2239   1.046       .  S
N2235      H2240   1.046       .  S
N2238      H2241   1.046       .  S
N2238      H2242   1.046       .  S
C2243      C2244   1.406       .  A
C2243      C2248   1.410       .  A
C2243      H2250   1.084       .  S
C2244      C2245   1.408       .  A
C2245      C2246   1.389       .  A
C2245      N2252   1.434       .  S
C2246      C2247   1.408       .  A
C2246      H2251   1.084       .  S
C2247      C2248   1.415       .  A
C2248      N2249   1.437       .  S
N2249      H2253   1.046       .  S
N2249      H2254   1.045       .  S
N2252      H2255   1.046       .  S
N2252      H2256   1.044       .  S
C2257      C2258   1.414       .  A
C2257      C2262   1.412       .  A
C2258      C2259   1.408       .  A
C2259      C2260   1.425       .  A
C2259      N2266   1.436   1_545  S
C2260      C2261   1.423       .  A
C2260      H2265   1.083       .  S
C2261      C2262   1.411       .  A
C2262      N2263   1.432       .  S
N2263      H2268   1.046       .  S
N2266      H2269   1.045       .  S
N2266      H2270   1.046       .  S
C2271      C2272   1.405       .  A
C2271      H2278   1.084       .  S
C2273      C2274   1.397       .  A
C2274      C2275   1.408   1_554  A
C2274      H2279   1.084       .  S
C2275      C2276   1.411       .  A
C2276      N2277   1.437       .  S
N2277      H2282   1.045       .  S
C2285      C2286   1.419       .  A
C2285      C2290   1.416       .  A
C2285      H2292   1.084   1_565  S
C2286      C2287   1.415       .  A
C2287      C2288   1.409       .  A
C2288      C2289   1.414       .  A
C2288      H2293   1.084       .  S
C2289      C2290   1.412       .  A
C2290      N2291   1.431       .  S
N2291      H2295   1.045       .  S
N2291      H2296   1.045       .  S
N2294      H2297   1.045       .  S
N2294      H2298   1.045       .  S
C2299      C2300   1.403       .  A
C2299      C2304   1.404       .  A
C2299      H2306   1.084       .  S
C2300      C2301   1.419       .  A
C2301      C2302   1.407       .  A
C2301      N2308   1.438   1_545  S
C2302      C2303   1.405       .  A
C2302      H2307   1.084       .  S
C2303      C2304   1.413       .  A
C2304      N2305   1.438       .  S
N2305      H2309   1.046       .  S
N2305      H2310   1.046       .  S
N2308      H2311   1.041       .  S
N2308      H2312   1.046       .  S
C2313      C2314   1.406       .  A
C2313      C2318   1.412       .  A
C2313      H2320   1.084       .  S
C2314      C2315   1.411       .  A
C2315      C2316   1.401       .  A
C2315      N2322   1.438       .  S
C2316      C2317   1.399       .  A
C2316      H2321   1.084       .  S
C2317      C2318   1.410       .  A
C2318      N2319   1.437       .  S
N2319      H2323   1.046   1_545  S
N2319      H2324   1.046   1_545  S
N2322      H2325   1.046       .  S
N2322      H2326   1.046       .  S
C2327      C2328   1.406       .  A
C2327      C2332   1.395       .  A
C2327      H2334   1.084       .  S
C2329      C2330   1.397       .  A
C2329      N2336   1.433       .  S
C2330      C2331   1.405   1_556  A
C2330      H2335   1.084       .  S
C2332      N2333   1.434       .  S
N2333      H2337   1.044       .  S
N2333      H2338   1.046       .  S
N2336      H2339   1.045       .  S
N2336      H2340   1.046       .  S
