geometry optimzed in LAMMPS
_audit_creation_date              2020-12-01 
_audit_creation_method            'lammps2cif' 
_symmetry_space_group_name_H-M    'P1' 
_symmetry_Int_Tables_number       1 
_symmetry_cell_setting            triclinic 
loop_ 
_symmetry_equiv_pos_as_xyz 
  x,y,z 
_cell_length_a                    48.80301012 
_cell_length_b                    48.79411431018639 
_cell_length_c                    25.598224498343875 
_cell_angle_alpha                 90.00076852950413 
_cell_angle_beta                  90.00124476999821 
_cell_angle_gamma                 90.00015836913718 
loop_ 
_atom_site_label 
_atom_site_type_symbol 
_atom_site_fract_x 
_atom_site_fract_y 
_atom_site_fract_z 
_atom_site_charge 
O1          O  0.22786133  0.36977124  0.04575331    -0.84000
C2          C  0.18708011  0.31737240  0.22063911     0.95400
O3          O  0.17308725  0.33444454  0.19539207    -0.73100
O4          O  0.18098877  0.38090723  0.16509959    -0.76700
Al5        Al  0.17879886  0.34805033  0.12785833     1.49000
C6          C  0.18649829  0.40261628  0.14280205     0.90700
O7          O  0.24294173  0.37561136  0.19203803    -0.82900
O8          O  0.25293915  0.31488918  0.08573573    -0.76400
Al9        Al  0.23613192  0.37341775  0.11710891     1.90100
O10         O  0.25378517  0.33114814  0.19432810    -0.75500
O11         O  0.20726010  0.29076420  0.10182661    -0.75400
O12         O  0.20822573  0.30637043  0.20242302    -0.81000
O13         O  0.16871903  0.31351894  0.09860246    -0.79200
O14         O  0.21432121  0.34415557  0.12933515    -1.15400
O15         O  0.18252563  0.36214698  0.05601123    -0.74600
C16         C  0.20380896  0.36599979  0.02699763     0.96200
C17         C  0.25043863  0.35422904  0.21760112     0.92600
Al18       Al  0.22965021  0.31297040  0.14449706     1.55600
O19         O  0.20875607  0.40351796  0.11852937    -0.79200
C20         C  0.18180932  0.29148351  0.09414405     0.96700
C21         C  0.27392437  0.32915583  0.09088403     0.91600
O22         O  0.27099796  0.35339236  0.10761054    -0.84500
O23         O  0.26498680  0.35448676  0.88540750    -0.84000
C24         C  0.17900074  0.32290390  0.77417828     0.95400
O25         O  0.19728801  0.30763374  0.79425659    -0.73100
O26         O  0.24564374  0.32849692  0.79496623    -0.76700
Al27       Al  0.22305171  0.31287077  0.84838518     1.49000
C28         C  0.24736407  0.35192325  0.77338310     0.90700
O29         O  0.20548731  0.40422053  0.85733947    -0.82900
O30         O  0.18069321  0.35279888  0.94865770    -0.76400
Al31       Al  0.23084065  0.37414138  0.87098632     1.90100
O32         O  0.16762807  0.38241185  0.86555996    -0.75500
O33         O  0.16373646  0.30876648  0.88668343    -0.75400
O34         O  0.16666715  0.34120283  0.80097624    -0.81000
O35         O  0.20366166  0.29153444  0.89837007    -0.79200
O36         O  0.20888639  0.34482200  0.86448758    -1.15400
O37         O  0.24997367  0.31367213  0.90066756    -0.74600
C38         C  0.26957184  0.32992662  0.89811408     0.96200
C39         C  0.17988449  0.40415974  0.85843734     0.92600
Al40       Al  0.17312995  0.34641630  0.87519209     1.55600
O41         O  0.23988589  0.37360957  0.79725005    -0.79200
C42         C  0.17825893  0.28856129  0.89761323     0.96700
C43         C  0.20143855  0.36487580  0.96988773     0.91600
O44         O  0.22170398  0.37461622  0.94368666    -0.84500
O45         O  0.37866078  0.26869355  0.04572184    -0.84000
C46         C  0.32628360  0.30948039  0.22062374     0.95400
O47         O  0.34336490  0.32346893  0.19539203    -0.73100
O48         O  0.38981897  0.31556085  0.16507400    -0.76700
Al49       Al  0.35696058  0.31776206  0.12784956     1.49000
C50         C  0.41152160  0.31003862  0.14277266     0.90700
O51         O  0.38450133  0.25359534  0.19200014    -0.82900
O52         O  0.32378648  0.24361686  0.08570098    -0.76400
Al53       Al  0.38230734  0.26041226  0.11707306     1.90100
O54         O  0.34004158  0.24276713  0.19429858    -0.75500
O55         O  0.29968159  0.28930485  0.10178317    -0.75400
O56         O  0.31527398  0.28833962  0.20238812    -0.81000
O57         O  0.32242979  0.32785517  0.09861321    -0.79200
O58         O  0.35305752  0.28223408  0.12930994    -1.15400
O59         O  0.37104750  0.31403908  0.05599832    -0.74600
C60         C  0.37489626  0.29275392  0.02697576     0.96200
C61         C  0.36312216  0.24610404  0.21756701     0.92600
Al62       Al  0.32187361  0.26690923  0.14446316     1.55600
O63         O  0.41241071  0.28777893  0.11849466    -0.79200
C64         C  0.30039875  0.31476280  0.09413179     0.96700
C65         C  0.33804507  0.22262459  0.09084937     0.91600
O66         O  0.36227842  0.22554694  0.10756956    -0.84500
O67         O  0.36338249  0.23157525  0.88539312    -0.84000
C68         C  0.33179827  0.31756599  0.77417228     0.95400
O69         O  0.31653608  0.29927223  0.79425090    -0.73100
O70         O  0.33739636  0.25090881  0.79496804    -0.76700
Al71       Al  0.32177468  0.27351349  0.84838513     1.49000
C72         C  0.36081683  0.24919540  0.77337027     0.90700
O73         O  0.41311064  0.29107442  0.85733000    -0.82900
O74         O  0.36170591  0.31588314  0.94864066    -0.76400
Al75       Al  0.38303432  0.26572356  0.87097019     1.90100
O76         O  0.39131150  0.32894598  0.86552278    -0.75500
O77         O  0.31767028  0.33284497  0.88667727    -0.75400
O78         O  0.35009459  0.32990553  0.80096106    -0.81000
O79         O  0.30044022  0.29291318  0.89835958    -0.79200
O80         O  0.35372097  0.28768363  0.86447553    -1.15400
O81         O  0.32258172  0.24659911  0.90068569    -0.74600
C82         C  0.33882937  0.22699489  0.89812196     0.96200
C83         C  0.41305449  0.31668174  0.85841250     0.92600
Al84       Al  0.35531715  0.32344639  0.87517466     1.55600
O85         O  0.38249968  0.25667909  0.79723279    -0.79200
C86         C  0.29746636  0.31832151  0.89759819     0.96700
C87         C  0.37377591  0.29513039  0.96986941     0.91600
O88         O  0.38351128  0.27486040  0.94366621    -0.84500
O89         O  0.27760307  0.11786707  0.04571815    -0.84000
C90         C  0.31838889  0.17025463  0.22061235     0.95400
O91         O  0.33238259  0.15318824  0.19535493    -0.73100
O92         O  0.32447980  0.10672689  0.16506202    -0.76700
Al93       Al  0.32666661  0.13958389  0.12782388     1.49000
C94         C  0.31897055  0.08501797  0.14276297     0.90700
O95         O  0.26252418  0.11201705  0.19200632    -0.82900
O96         O  0.25252230  0.17274524  0.08571766    -0.76400
Al97       Al  0.26933372  0.11421495  0.11707458     1.90100
O98         O  0.25167999  0.15647998  0.19430447    -0.75500
O99         O  0.29820089  0.19687019  0.10181206    -0.75400
O100        O  0.29724002  0.18125592  0.20240299    -0.81000
O101        O  0.33674131  0.17411516  0.09856553    -0.79200
O102        O  0.29114355  0.14347706  0.12930631    -1.15400
O103        O  0.32293883  0.12548859  0.05598124    -0.74600
C104        C  0.30165579  0.12164147  0.02696521     0.96200
C105        C  0.25502438  0.13339763  0.21757406     0.92600
Al106      Al  0.27581358  0.17466053  0.14447759     1.55600
O107        O  0.29671242  0.08411558  0.11848902    -0.79200
C108        C  0.32365070  0.19614975  0.09411441     0.96700
C109        C  0.23153772  0.15847801  0.09086646     0.91600
O110        O  0.23446614  0.13423983  0.10758219    -0.84500
O111        O  0.24048964  0.13317911  0.88537409    -0.84000
C112        C  0.32647861  0.16476234  0.77417325     0.95400
O113        O  0.30819517  0.18003580  0.79425246    -0.73100
O114        O  0.25983670  0.15917774  0.79494380    -0.76700
Al115      Al  0.28242836  0.17479680  0.84837391     1.49000
C116        C  0.25811474  0.13575255  0.77335586     0.90700
O117        O  0.29998285  0.08344452  0.85729177    -0.82900
O118        O  0.32477470  0.13485725  0.94864189    -0.76400
Al119      Al  0.27463238  0.11352378  0.87094897     1.90100
O120        O  0.33784272  0.10524908  0.86554490    -0.75500
O121        O  0.34174278  0.17889382  0.88668016    -0.75400
O122        O  0.33880970  0.14646057  0.80096691    -0.81000
O123        O  0.30181912  0.19612683  0.89837155    -0.79200
O124        O  0.29658905  0.14284258  0.86446766    -1.15400
O125        O  0.25550404  0.17399268  0.90064920    -0.74600
C126        C  0.23590607  0.15773796  0.89809168     0.96200
C127        C  0.32558534  0.08350320  0.85840532     0.92600
Al128      Al  0.33234411  0.14124416  0.87518122     1.55600
O129        O  0.26559043  0.11406425  0.79721666    -0.79200
C130        C  0.32722401  0.19909900  0.89760853     0.96700
C131        C  0.30402854  0.12277595  0.96985985     0.91600
O132        O  0.28376484  0.11303854  0.94364733    -0.84500
O133        O  0.12680151  0.21894406  0.04573916    -0.84000
C134        C  0.17917614  0.17814236  0.22062410     0.95400
O135        O  0.16209862  0.16415348  0.19538591    -0.73100
O136        O  0.11564608  0.17206379  0.16507182    -0.76700
Al137      Al  0.14850277  0.16986692  0.12784449     1.49000
C138        C  0.09394199  0.17758715  0.14277873     0.90700
O139        O  0.12095965  0.23402601  0.19202596    -0.82900
O140        O  0.18167370  0.24401688  0.08573080    -0.76400
Al141      Al  0.12315370  0.22721692  0.11709481     1.90100
O142        O  0.16541885  0.24485632  0.19432788    -0.75500
O143        O  0.20578083  0.19832731  0.10179782    -0.75400
O144        O  0.19018599  0.19928481  0.20239920    -0.81000
O145        O  0.18303302  0.15977737  0.09860507    -0.79200
O146        O  0.15240426  0.20539476  0.12932256    -1.15400
O147        O  0.13441698  0.17359791  0.05599082    -0.74600
C148        C  0.13057149  0.19488755  0.02697902     0.96200
C149        C  0.14233917  0.24151720  0.21759630     0.92600
Al150      Al  0.18358732  0.22071911  0.14448374     1.55600
O151        O  0.09305107  0.19984859  0.11850451    -0.79200
C152        C  0.20506333  0.17287069  0.09412992     0.96700
C153        C  0.16741508  0.26500773  0.09088409     0.91600
O154        O  0.14318192  0.26208445  0.10760652    -0.84500
O155        O  0.14209919  0.25608744  0.88540881    -0.84000
C156        C  0.17368176  0.17010632  0.77415361     0.95400
O157        O  0.18894295  0.18839962  0.79423812    -0.73100
O158        O  0.16808231  0.23676166  0.79498469    -0.76700
Al159      Al  0.18370496  0.21415267  0.84838885     1.49000
C160        C  0.14466169  0.23847218  0.77338713     0.90700
O161        O  0.09236584  0.19659464  0.85734874    -0.82900
O162        O  0.14376884  0.17177111  0.94862866    -0.76400
Al163      Al  0.12244651  0.22194110  0.87098320     1.90100
O164        O  0.11416847  0.15872230  0.86549232    -0.75500
O165        O  0.18780760  0.15481864  0.88666175    -0.75400
O166        O  0.15538587  0.15776527  0.80094006    -0.81000
O167        O  0.20503882  0.19474942  0.89835516    -0.79200
O168        O  0.15175895  0.19998082  0.86447575    -1.15400
O169        O  0.18289922  0.24106189  0.90070095    -0.74600
C170        C  0.16665203  0.26066707  0.89813586     0.96200
C171        C  0.09242262  0.17098664  0.85840727     0.92600
Al172      Al  0.15016148  0.16421724  0.87515640     1.55600
O173        O  0.12297900  0.23098799  0.79724779    -0.79200
C174        C  0.20801263  0.16934213  0.89758532     0.96700
C175        C  0.13170072  0.19252202  0.96986922     0.91600
O176        O  0.12197272  0.21279937  0.94367634    -0.84500
O177        O  0.37866762  0.21892957  0.44698565    -0.84000
C178        C  0.32627867  0.17813994  0.27210146     0.95400
O179        O  0.34334990  0.16414490  0.29734472    -0.73100
O180        O  0.38980639  0.17204634  0.32764710    -0.76700
Al181      Al  0.35695256  0.16985651  0.36488221     1.49000
C182        C  0.41151336  0.17757077  0.34993186     0.90700
O183        O  0.38450260  0.23401552  0.30070266    -0.82900
O184        O  0.32379514  0.24400438  0.40701187    -0.76400
Al185      Al  0.38231132  0.22720343  0.37563143     1.90100
O186        O  0.34004646  0.24485538  0.29841331    -0.75500
O187        O  0.29967819  0.19832362  0.39091971    -0.75400
O188        O  0.31527640  0.19928726  0.29032370    -0.81000
O189        O  0.32242438  0.15977345  0.39413183    -0.79200
O190        O  0.35305726  0.20538518  0.36340468    -1.15400
O191        O  0.37104485  0.17358504  0.43673191    -0.74600
C192        C  0.37489501  0.19487353  0.46574487     0.96200
C193        C  0.36312373  0.24151175  0.27513853     0.92600
Al194      Al  0.32187636  0.22071513  0.34824730     1.55600
O195        O  0.41240879  0.19983165  0.37420455    -0.79200
C196        C  0.30039439  0.17286867  0.39859658     0.96700
C197        C  0.33805471  0.26499531  0.40186339     0.91600
O198        O  0.36228702  0.26207200  0.38513529    -0.84500
O199        O  0.36337232  0.25607318  0.60733055    -0.84000
C200        C  0.33180004  0.17008163  0.71857096     0.95400
O201        O  0.31653228  0.18836922  0.69848595    -0.73100
O202        O  0.33739202  0.23673292  0.69777196    -0.76700
Al203      Al  0.32176910  0.21413211  0.64435230     1.49000
C204        C  0.36081486  0.23845173  0.71935868     0.90700
O205        O  0.41310482  0.19657910  0.63538278    -0.82900
O206        O  0.36169716  0.17175827  0.54409169    -0.76400
Al207      Al  0.38302575  0.22192611  0.62174889     1.90100
O208        O  0.39130535  0.15870644  0.62720726    -0.75500
O209        O  0.31766428  0.15480378  0.60606510    -0.75400
O210        O  0.35009650  0.15774365  0.69177993    -0.81000
O211        O  0.30043983  0.19473688  0.59436783    -0.79200
O212        O  0.35371494  0.19996418  0.62825490    -1.15400
O213        O  0.32256939  0.24105027  0.59206022    -0.74600
C214        C  0.33881680  0.26065405  0.59461940     0.96200
C215        C  0.41304896  0.17097220  0.63430515     0.92600
Al216      Al  0.35531195  0.16420044  0.61756204     1.55600
O217        O  0.38249660  0.23097388  0.69548719    -0.79200
C218        C  0.29746332  0.16933007  0.59513212     0.96700
C219        C  0.37376696  0.19250808  0.52285514     0.91600
O220        O  0.38349783  0.21278403  0.54905106    -0.84500
O221        O  0.27761338  0.36975864  0.44701975    -0.84000
C222        C  0.31839114  0.31736702  0.27211280     0.95400
O223        O  0.33239028  0.33442578  0.29738106    -0.73100
O224        O  0.32448050  0.38089132  0.32766431    -0.76700
Al225      Al  0.32667309  0.34803676  0.36491131     1.49000
C226        C  0.31897131  0.40260130  0.34996179     0.90700
O227        O  0.26252583  0.37560637  0.30074244    -0.82900
O228        O  0.25253788  0.31487256  0.40702298    -0.76400
Al229      Al  0.26934028  0.37340656  0.37566856     1.90100
O230        O  0.25167600  0.33114624  0.29844267    -0.75500
O231        O  0.29821247  0.29074684  0.39088743    -0.75400
O232        O  0.29723582  0.30637476  0.29030869    -0.81000
O233        O  0.33674909  0.31350781  0.39417905    -0.79200
O234        O  0.29114999  0.34414392  0.36343008    -1.15400
O235        O  0.32294825  0.36213832  0.43675414    -0.74600
C236        C  0.30166683  0.36599034  0.46577163     0.96200
C237        C  0.25502539  0.35422723  0.27517350     0.92600
Al238      Al  0.27581833  0.31296211  0.34824886     1.55600
O239        O  0.29671647  0.40350406  0.37424225    -0.79200
C240        C  0.32366035  0.29146965  0.39860369     0.96700
C241        C  0.23155282  0.32914038  0.40188885     0.91600
O242        O  0.23447739  0.35337972  0.38517488    -0.84500
O243        O  0.24049195  0.35449179  0.60735416    -0.84000
C244        C  0.32646999  0.32289055  0.71857705     0.95400
O245        O  0.30817497  0.30762688  0.69850450    -0.73100
O246        O  0.25982277  0.32849768  0.69778496    -0.76700
Al247      Al  0.28241698  0.31286722  0.64437149     1.49000
C248        C  0.25810995  0.35192321  0.71937565     0.90700
O249        O  0.29999778  0.40421383  0.63542380    -0.82900
O250        O  0.32478385  0.35279058  0.54410718    -0.76400
Al251      Al  0.27464047  0.37413936  0.62177844     1.90100
O252        O  0.33785375  0.38239843  0.62721161    -0.75500
O253        O  0.34173398  0.30875396  0.60607053    -0.75400
O254        O  0.33880781  0.34118571  0.69178140    -0.81000
O255        O  0.30180697  0.29152291  0.59439663    -0.79200
O256        O  0.29658950  0.34481563  0.62827408    -1.15400
O257        O  0.25550067  0.31367654  0.59207906    -0.74600
C258        C  0.23590455  0.32993337  0.59463528     0.96200
C259        C  0.32560058  0.40414844  0.63432962     0.92600
Al260      Al  0.33234595  0.34640414  0.61757025     1.55600
O261        O  0.26559582  0.37360846  0.69551439    -0.79200
C262        C  0.32721131  0.28854949  0.59514737     0.96700
C263        C  0.30403972  0.36486934  0.52287922     0.91600
O264        O  0.28377610  0.37461310  0.54908043    -0.84500
O265        O  0.12680754  0.26870050  0.44702053    -0.84000
C266        C  0.17919154  0.30948165  0.27212742     0.95400
O267        O  0.16212625  0.32347918  0.29737899    -0.73100
O268        O  0.11566648  0.31557945  0.32767661    -0.76700
Al269      Al  0.14852159  0.31776670  0.36491155     1.49000
C270        C  0.09396087  0.31005693  0.34996422     0.90700
O271        O  0.12096246  0.25360611  0.30073644    -0.82900
O272        O  0.18167810  0.24361427  0.40703305    -0.76400
Al273      Al  0.12315930  0.26042172  0.37566590     1.90100
O274        O  0.16541673  0.24276152  0.29844126    -0.75500
O275        O  0.20579690  0.28929481  0.39093050    -0.75400
O276        O  0.19018844  0.28832938  0.29033837    -0.81000
O277        O  0.18304892  0.32784387  0.39417217    -0.79200
O278        O  0.15241425  0.28223681  0.36343294    -1.15400
O279        O  0.13442638  0.31404425  0.43675160    -0.74600
C280        C  0.13057693  0.29275915  0.46576984     0.96200
C281        C  0.14233930  0.24610742  0.27516996     0.92600
Al282      Al  0.18359281  0.26690308  0.34826701     1.55600
O283        O  0.09306429  0.28779652  0.37423818    -0.79200
C284        C  0.20507943  0.31474866  0.39862594     0.96700
C285        C  0.16741520  0.22262546  0.40188649     0.91600
O286        O  0.14318145  0.22555119  0.38516989    -0.84500
O287        O  0.14210191  0.23158570  0.60735217    -0.84000
C288        C  0.17367718  0.31758326  0.71857880     0.95400
O289        O  0.18894327  0.29929358  0.69849601    -0.73100
O290        O  0.16808534  0.25092884  0.69778625    -0.76700
Al291      Al  0.18370552  0.27352943  0.64436492     1.49000
C292        C  0.14466333  0.24921271  0.71937650     0.90700
O293        O  0.09237038  0.29107856  0.63541364    -0.82900
O294        O  0.14377210  0.31588983  0.54410313    -0.76400
Al295      Al  0.12244740  0.26573138  0.62177441     1.90100
O296        O  0.11416710  0.32895147  0.62721852    -0.75500
O297        O  0.18780700  0.33285729  0.60606895    -0.75400
O298        O  0.15537973  0.32992022  0.69178603    -0.81000
O299        O  0.20503394  0.29292495  0.59438044    -0.79200
O300        O  0.15175851  0.28769492  0.62827103    -1.15400
O301        O  0.18290327  0.24661083  0.59207180    -0.74600
C302        C  0.16665534  0.22700664  0.59462550     0.96200
C303        C  0.09242583  0.31668517  0.63433009     0.92600
Al304      Al  0.15016008  0.32345725  0.61756979     1.55600
O305        O  0.12298099  0.25668985  0.69550869    -0.79200
C306        C  0.20800963  0.31833320  0.59514522     0.96700
C307        C  0.13170205  0.29513592  0.52287753     0.91600
O308        O  0.12196930  0.27486586  0.54907981    -0.84500
O309        O  0.22785735  0.11786935  0.44700191    -0.84000
C310        C  0.18706589  0.17025553  0.27211395     0.95400
O311        O  0.17307457  0.15318584  0.29736572    -0.73100
O312        O  0.18098537  0.10672650  0.32765567    -0.76700
Al313      Al  0.17879186  0.13958265  0.36489695     1.49000
C314        C  0.18649445  0.08501899  0.34995823     0.90700
O315        O  0.24293452  0.11201793  0.30071443    -0.82900
O316        O  0.25293623  0.17274541  0.40700454    -0.76400
Al317      Al  0.23612621  0.11421652  0.37564620     1.90100
O318        O  0.25377362  0.15648230  0.29841335    -0.75500
O319        O  0.20725639  0.19686690  0.39092467    -0.75400
O320        O  0.20821304  0.18125904  0.29032722    -0.81000
O321        O  0.16871389  0.17411440  0.39415534    -0.79200
O322        O  0.21431460  0.14347758  0.36341634    -1.15400
O323        O  0.18252094  0.12548861  0.43674177    -0.74600
C324        C  0.20380488  0.12164313  0.46575597     0.96200
C325        C  0.25043163  0.13339862  0.27514655     0.92600
Al326      Al  0.22964234  0.17466140  0.34824862     1.55600
O327        O  0.20875119  0.08411760  0.37423475    -0.79200
C328        C  0.18180656  0.19614797  0.39861630     0.96700
C329        C  0.27391997  0.15847802  0.40185612     0.91600
O330        O  0.27099190  0.13424041  0.38513576    -0.84500
O331        O  0.26498232  0.13317355  0.60733433    -0.84000
C332        C  0.17900915  0.16478118  0.71855614     0.95400
O333        O  0.19730261  0.18004410  0.69848052    -0.73100
O334        O  0.24565603  0.15917604  0.69775646    -0.76700
Al335      Al  0.22305840  0.17480021  0.64434208     1.49000
C336        C  0.24736843  0.13575216  0.71935029     0.90700
O337        O  0.20548330  0.08345104  0.63541919    -0.82900
O338        O  0.18069152  0.13486069  0.54408767    -0.76400
Al339      Al  0.23083723  0.11352563  0.62176421     1.90100
O340        O  0.16762625  0.10526447  0.62720809    -0.75500
O341        O  0.16373911  0.17890530  0.60604333    -0.75400
O342        O  0.16667114  0.14648377  0.69176269    -0.81000
O343        O  0.20366420  0.19613822  0.59436426    -0.79200
O344        O  0.20888698  0.14284917  0.62825294    -1.15400
O345        O  0.24997246  0.17398713  0.59204672    -0.74600
C346        C  0.26956881  0.15772907  0.59461211     0.96200
C347        C  0.17988109  0.08351566  0.63433071     0.92600
Al348      Al  0.17313082  0.14125715  0.61755152     1.55600
O349        O  0.23988234  0.11406500  0.69549572    -0.79200
C350        C  0.17826115  0.19911179  0.59512586     0.96700
C351        C  0.20143518  0.12277869  0.52286395     0.91600
O352        O  0.22170110  0.11304206  0.54906888    -0.84500
O353        O  0.47786171  0.11977216  0.54570874    -0.84000
C354        C  0.43707538  0.06738784  0.72060643     0.95400
O355        O  0.42307939  0.08444825  0.69533889    -0.73100
O356        O  0.43098934  0.13091046  0.66505547    -0.76700
Al357      Al  0.42879918  0.09805520  0.62781047     1.49000
C358        C  0.43649821  0.15262029  0.64275820     0.90700
O359        O  0.49294311  0.12562681  0.69199472    -0.82900
O360        O  0.00294189  0.06489296  0.58571490    -0.76400
Al361      Al  0.48613206  0.12342546  0.61706389     1.90100
O362        O  0.50378963  0.08116533  0.69429722    -0.75500
O363        O  0.45726501  0.04076823  0.60182142    -0.75400
O364        O  0.45822931  0.05639144  0.70240703    -0.81000
O365        O  0.41872598  0.06352542  0.59854232    -0.79200
O366        O  0.46432259  0.09416302  0.62929764    -1.15400
O367        O  0.43252627  0.11215281  0.55597034    -0.74600
C368        C  0.45380926  0.11599926  0.52695465     0.96200
C369        C  0.50044337  0.10424781  0.71756449     0.92600
Al370      Al  0.47965347  0.06298142  0.64447754     1.55600
O371        O  0.45875447  0.15352268  0.61848024    -0.79200
C372        C  0.43181691  0.04148888  0.59410553     0.96700
C373        C  0.02392588  0.07916185  0.59085769     0.91600
O374        O  0.02099770  0.10340104  0.60757037    -0.84500
O375        O  0.01497969  0.10447538  0.38538014    -0.84000
C376        C  0.42900710  0.07286141  0.27416287     0.95400
O377        O  0.44730172  0.05759939  0.29423912    -0.73100
O378        O  0.49565461  0.07846932  0.29496237    -0.76700
Al379      Al  0.47305751  0.06284495  0.34837665     1.49000
C380        C  0.49736616  0.10189299  0.27336502     0.90700
O381        O  0.45547805  0.15419343  0.35729181    -0.82900
O382        O  0.43069229  0.10278180  0.44862677    -0.76400
Al383      Al  0.48083377  0.12412050  0.37094789     1.90100
O384        O  0.41762229  0.13237860  0.36550999    -0.75500
O385        O  0.41373858  0.05873666  0.38667317    -0.75400
O386        O  0.41666848  0.09115850  0.30095565    -0.81000
O387        O  0.45366408  0.04150494  0.39835314    -0.79200
O388        O  0.45888494  0.09479541  0.36446236    -1.15400
O389        O  0.99997125  0.06366161  0.40067427    -0.74600
C390        C  0.01956704  0.07991997  0.39810955     0.96200
C391        C  0.42987586  0.15412753  0.35838597     0.92600
Al392      Al  0.42312934  0.09638564  0.37516504     1.55600
O393        O  0.48987748  0.12358003  0.29721661    -0.79200
C394        C  0.42826035  0.03853136  0.39759074     0.96700
C395        C  0.45143676  0.11486572  0.46984975     0.91600
O396        O  0.47169979  0.12460466  0.44364248    -0.84500
O397        O  0.02761907  0.36788109  0.54573982    -0.84000
C398        C  0.06839998  0.42027646  0.72063683     0.95400
O399        O  0.08239347  0.40320827  0.69538449    -0.73100
O400        O  0.07448686  0.35674518  0.66509387    -0.76700
Al401      Al  0.07668027  0.38960098  0.62785137     1.49000
C402        C  0.06897707  0.33503608  0.64279352     0.90700
O403        O  0.01253499  0.36203720  0.69201950    -0.82900
O404        O  0.00254192  0.42276303  0.58572643    -0.76400
Al405      Al  0.01934673  0.36423348  0.61709216     1.90100
O406        O  0.00169140  0.40649986  0.69431581    -0.75500
O407        O  0.04821876  0.44688702  0.60183309    -0.75400
O408        O  0.04725066  0.43127613  0.70242401    -0.81000
O409        O  0.08675952  0.42413184  0.59859414    -0.79200
O410        O  0.04115765  0.39349538  0.62932605    -1.15400
O411        O  0.07295472  0.37550319  0.55600410    -0.74600
C412        C  0.05167191  0.37165147  0.52698643     0.96200
C413        C  0.00503761  0.38341785  0.71758630     0.92600
Al414      Al  0.02582819  0.42467928  0.64449332     1.55600
O415        O  0.04672075  0.33413484  0.61851510    -0.79200
C416        C  0.07366846  0.44616743  0.59414243     0.96700
C417        C  0.48155737  0.40849607  0.59086851     0.91600
O418        O  0.48448234  0.38425894  0.60758943    -0.84500
O419        O  0.49048807  0.38315059  0.38540750    -0.84000
C420        C  0.07645655  0.41476203  0.27417095     0.95400
O421        O  0.05815699  0.43001986  0.29424125    -0.73100
O422        O  0.00980644  0.40914604  0.29498200    -0.76700
Al423      Al  0.03240575  0.42477852  0.34838608     1.49000
C424        C  0.00809795  0.38572169  0.27338664     0.90700
O425        O  0.04999521  0.33343315  0.35733542    -0.82900
O426        O  0.07478423  0.38485480  0.44864591    -0.76400
Al427      Al  0.02463695  0.36350589  0.37098106     1.90100
O428        O  0.08785074  0.35525191  0.36552811    -0.75500
O429        O  0.09172605  0.42889523  0.38668299    -0.75400
O430        O  0.08879824  0.39646899  0.30096775    -0.81000
O431        O  0.05179894  0.44612659  0.39835033    -0.79200
O432        O  0.04658326  0.39283153  0.36448161    -1.15400
O433        O  0.50549609  0.42396557  0.40068953    -0.74600
C434        C  0.48589973  0.40770853  0.39812681     0.96200
C435        C  0.07559779  0.33350078  0.35841692     0.92600
Al436      Al  0.08234045  0.39124570  0.37517966     1.55600
O437        O  0.01558910  0.36403654  0.29724474    -0.79200
C438        C  0.07720220  0.44910114  0.39759903     0.96700
C439        C  0.05404163  0.37277514  0.46987852     0.91600
O440        O  0.03377607  0.36303264  0.44367816    -0.84500
O441        O  0.37681160  0.46894156  0.54571420    -0.84000
C442        C  0.42919686  0.42816459  0.72061638     0.95400
O443        O  0.41212905  0.41416850  0.69536897    -0.73100
O444        O  0.36566984  0.42207016  0.66506783    -0.76700
Al445      Al  0.39852439  0.41987752  0.62783374     1.49000
C446        C  0.34396322  0.42759204  0.64277890     0.90700
O447        O  0.37097024  0.48404223  0.69199144    -0.82900
O448        O  0.43168478  0.49402348  0.58569529    -0.76400
Al449      Al  0.37316548  0.47722316  0.61706566     1.90100
O450        O  0.41542552  0.49488422  0.69428724    -0.75500
O451        O  0.45580164  0.44834347  0.60180928    -0.75400
O452        O  0.44019543  0.44931587  0.70240027    -0.81000
O453        O  0.43305203  0.40979504  0.59858015    -0.79200
O454        O  0.40241962  0.45540679  0.62930413    -1.15400
O455        O  0.38442967  0.42359811  0.55598949    -0.74600
C456        C  0.38057989  0.44488237  0.52696872     0.96200
C457        C  0.39234731  0.49153988  0.71755894     0.92600
Al458      Al  0.43359943  0.47073898  0.64446728     1.55600
O459        O  0.34306860  0.44985076  0.61849806    -0.79200
C460        C  0.45508316  0.42288892  0.59412464     0.96700
C461        C  0.41742392  0.01501376  0.59083686     0.91600
O462        O  0.39319000  0.01209093  0.60755475    -0.84500
O463        O  0.39209991  0.00605472  0.38537521    -0.84000
C464        C  0.42366696  0.42005095  0.27416435     0.95400
O465        O  0.43893764  0.43833716  0.29424630    -0.73100
O466        O  0.41808034  0.48670297  0.29493369    -0.76700
Al467      Al  0.43370153  0.46410727  0.34836559     1.49000
C468        C  0.39465751  0.48842449  0.27334868     0.90700
O469        O  0.34236686  0.44655967  0.35732165    -0.82900
O470        O  0.39377366  0.42175110  0.44863764    -0.76400
Al471      Al  0.37244452  0.47190804  0.37095794     1.90100
O472        O  0.36416218  0.40868692  0.36553493    -0.75500
O473        O  0.43780385  0.40478257  0.38667100    -0.75400
O474        O  0.40536974  0.40771565  0.30095600    -0.81000
O475        O  0.45502884  0.44471606  0.39836043    -0.79200
O476        O  0.40175455  0.44994381  0.36446431    -1.15400
O477        O  0.43290300  0.49103201  0.40064661    -0.74600
C478        C  0.41665530  0.01063492  0.39809435     0.96200
C479        C  0.34242101  0.42095322  0.35841860     0.92600
Al480      Al  0.40015611  0.41418145  0.37517301     1.55600
O481        O  0.37297530  0.48094991  0.29721975    -0.79200
C482        C  0.45800522  0.41930860  0.39760200     0.96700
C483        C  0.38170329  0.44250495  0.46986189     0.91600
O484        O  0.37196905  0.46277413  0.44365544    -0.84500
O485        O  0.12866818  0.01871226  0.54574468    -0.84000
C486        C  0.07628541  0.05950617  0.72062376     0.95400
O487        O  0.09335856  0.07349959  0.69538246    -0.73100
O488        O  0.13981410  0.06559701  0.66507958    -0.76700
Al489      Al  0.10695859  0.06778631  0.62784654     1.49000
C490        C  0.16151986  0.06007300  0.64279133     0.90700
O491        O  0.13451045  0.00362990  0.69203310    -0.82900
O492        O  0.07380009  0.49363267  0.58572769    -0.76400
Al493      Al  0.13231627  0.01043933  0.61710168     1.90100
O494        O  0.09005350  0.99279186  0.69432675    -0.75500
O495        O  0.04968480  0.03931641  0.60180250    -0.75400
O496        O  0.06528170  0.03836004  0.70240214    -0.81000
O497        O  0.07242947  0.07786792  0.59859600    -0.79200
O498        O  0.10306283  0.03225750  0.62932672    -1.15400
O499        O  0.12104830  0.06405725  0.55599876    -0.74600
C500        C  0.12489549  0.04276833  0.52698692     0.96200
C501        C  0.11313224  0.99613480  0.71760004     0.92600
Al502      Al  0.07188227  0.01692783  0.64448476     1.55600
O503        O  0.16241363  0.03781106  0.61852037    -0.79200
C504        C  0.05040030  0.06477190  0.59412441     0.96700
C505        C  0.08806117  0.47264430  0.59088125     0.91600
O506        O  0.11229320  0.47556906  0.60760684    -0.84500
O507        O  0.11336292  0.48157534  0.38540460    -0.84000
C508        C  0.08179772  0.06756902  0.27415885     0.95400
O509        O  0.06652653  0.04928449  0.29424530    -0.73100
O510        O  0.08738251  0.00091950  0.29495712    -0.76700
Al511      Al  0.07176251  0.02351943  0.34837771     1.49000
C512        C  0.11080597  0.99919874  0.27337497     0.90700
O513        O  0.16309830  0.04106314  0.35734569    -0.82900
O514        O  0.11169506  0.06588716  0.44864238    -0.76400
Al515      Al  0.13301880  0.01571953  0.37098382     1.90100
O516        O  0.14130340  0.07893783  0.36552804    -0.75500
O517        O  0.06766242  0.08284679  0.38666529    -0.75400
O518        O  0.10009511  0.07990526  0.30095210    -0.81000
O519        O  0.05043778  0.04291448  0.39836618    -0.79200
O520        O  0.10370969  0.03768400  0.36447728    -1.15400
O521        O  0.07255987  0.49659965  0.40066643    -0.74600
C522        C  0.08880782  0.47699532  0.39811558     0.96200
C523        C  0.16304458  0.06666962  0.35842373     0.92600
Al524      Al  0.10530996  0.07344742  0.37517170     1.55600
O525        O  0.13248783  0.00667266  0.29724950    -0.79200
C526        C  0.04746172  0.06832095  0.39759731     0.96700
C527        C  0.12376486  0.04513575  0.46987671     0.91600
O528        O  0.13349413  0.02486076  0.44367953    -0.84500
O529        O  0.39208960  0.48155762  0.10731292    -0.84000
C530        C  0.42367934  0.06753619  0.21856867     0.95400
O531        O  0.43893903  0.04924136  0.19848528    -0.73100
O532        O  0.41807480  0.00088033  0.19774031    -0.76700
Al533      Al  0.43369938  0.02348917  0.14433592     1.49000
C534        C  0.39465427  0.99916949  0.21933555     0.90700
O535        O  0.34236219  0.04105625  0.13537109    -0.82900
O536        O  0.39376870  0.06587654  0.04409326    -0.76400
Al537      Al  0.37244042  0.01570650  0.12173700     1.90100
O538        O  0.36416657  0.07892738  0.12722485    -0.75500
O539        O  0.43780731  0.08282325  0.10606437    -0.75400
O540        O  0.40538437  0.07987881  0.19178038    -0.81000
O541        O  0.45503597  0.04289113  0.09437265    -0.79200
O542        O  0.40175458  0.03766406  0.12824667    -1.15400
O543        O  0.43289050  0.49658020  0.09202323    -0.74600
C544        C  0.41664338  0.47697612  0.09459140     0.96200
C545        C  0.34242085  0.06666377  0.13431016     0.92600
Al546      Al  0.40016039  0.07342825  0.11756563     1.55600
O547        O  0.37297219  0.00665663  0.19547570    -0.79200
C548        C  0.45801106  0.06829894  0.09514079     0.96700
C549        C  0.38169959  0.04512737  0.02285078     0.91600
O550        O  0.37196838  0.02485045  0.04904161    -0.84500
O551        O  0.37680426  0.01870570  0.94697976    -0.84000
C552        C  0.42918308  0.05950353  0.77209466     0.95400
O553        O  0.41210213  0.07349177  0.79732698    -0.73100
O554        O  0.36564922  0.06558386  0.82764424    -0.76700
Al555      Al  0.39850689  0.06778176  0.86487119     1.49000
C556        C  0.34394549  0.06005936  0.84993752     0.90700
O557        O  0.37096687  0.00362078  0.80069605    -0.82900
O558        O  0.43167806  0.49363560  0.90700229    -0.76400
Al559      Al  0.37315890  0.01043145  0.87562566     1.90100
O560        O  0.41542629  0.99279138  0.79840207    -0.75500
O561        O  0.45578464  0.03932338  0.89093318    -0.75400
O562        O  0.44019368  0.03836287  0.79032852    -0.81000
O563        O  0.43303798  0.07787403  0.89410761    -0.79200
O564        O  0.40240911  0.03225420  0.86339930    -1.15400
O565        O  0.38442183  0.06405172  0.93672751    -0.74600
C566        C  0.38057367  0.04276261  0.96573932     0.96200
C567        C  0.39234712  0.99613038  0.77513081     0.92600
Al568      Al  0.43359309  0.01693038  0.84824590     1.55600
O569        O  0.34305546  0.03779833  0.87421003    -0.79200
C570        C  0.45506799  0.06478083  0.89858869     0.96700
C571        C  0.41742018  0.47264340  0.90184924     0.91600
O572        O  0.39318784  0.47556516  0.88512132    -0.84500
O573        O  0.01498018  0.38316164  0.10735166    -0.84000
C574        C  0.42898694  0.41473357  0.21856074     0.95400
O575        O  0.44726968  0.43000943  0.19848491    -0.73100
O576        O  0.49562742  0.40915022  0.19779908    -0.76700
Al577      Al  0.47303942  0.42477462  0.14436951     1.49000
C578        C  0.49735256  0.38572305  0.21937967     0.90700
O579        O  0.45548284  0.33342538  0.13541825    -0.82900
O580        O  0.43069118  0.38484854  0.04408418    -0.76400
Al581      Al  0.48083505  0.36350480  0.12176964     1.90100
O582        O  0.41762251  0.35522900  0.12716592    -0.75500
O583        O  0.41372709  0.42887675  0.10605915    -0.75400
O584        O  0.41665610  0.39643374  0.19176220    -0.81000
O585        O  0.45365248  0.44610789  0.09437312    -0.79200
O586        O  0.45887848  0.39282240  0.12826203    -1.15400
O587        O  0.99996681  0.42397733  0.09210050    -0.74600
C588        C  0.01956478  0.40772230  0.09464736     0.96200
C589        C  0.42988081  0.33348370  0.13430345     0.92600
Al590      Al  0.42312253  0.39122588  0.11754608     1.55600
O591        O  0.48987897  0.36403645  0.19550597    -0.79200
C592        C  0.42824839  0.44908085  0.09512565     0.96700
C593        C  0.45143712  0.37277176  0.02286021     0.91600
O594        O  0.47170048  0.36302873  0.04906799    -0.84500
O595        O  0.47786542  0.36788102  0.94700314    -0.84000
C596        C  0.43708715  0.42027545  0.77210277     0.95400
O597        O  0.42309236  0.40320905  0.79735837    -0.73100
O598        O  0.43099422  0.35674370  0.82765046    -0.76700
Al599      Al  0.42880498  0.38960118  0.86489056     1.49000
C600        C  0.43650363  0.33503456  0.84995041     0.90700
O601        O  0.49295064  0.36203680  0.80072272    -0.82900
O602        O  0.00294281  0.42276490  0.90701705    -0.76400
Al603      Al  0.48613796  0.36423341  0.87565004     1.90100
O604        O  0.50379758  0.40649869  0.79843085    -0.75500
O605        O  0.45726567  0.44689045  0.89089935    -0.75400
O606        O  0.45823830  0.43127323  0.79031347    -0.81000
O607        O  0.41872725  0.42413221  0.89414958    -0.79200
O608        O  0.46432784  0.39349532  0.86341575    -1.15400
O609        O  0.43253010  0.37550295  0.93673502    -0.74600
C610        C  0.45381138  0.37165036  0.96575306     0.96200
C611        C  0.50044995  0.38341752  0.77515658     0.92600
Al612      Al  0.47965837  0.42467925  0.84824696     1.55600
O613        O  0.45876189  0.33413377  0.87422534    -0.79200
C614        C  0.43181618  0.44616831  0.89859292     0.96700
C615        C  0.02392866  0.40849887  0.90187536     0.91600
O616        O  0.02100295  0.38426016  0.88515554    -0.84500
O617        O  0.11337869  0.00607352  0.10734598    -0.84000
C618        C  0.08178775  0.42008930  0.21857818     0.95400
O619        O  0.06652963  0.43838643  0.19849628    -0.73100
O620        O  0.08739032  0.48674905  0.19775927    -0.76700
Al621      Al  0.07176914  0.46413934  0.14435069     1.49000
C622        C  0.11080973  0.48845693  0.21936390     0.90700
O623        O  0.16310632  0.44657686  0.13541618    -0.82900
O624        O  0.11170459  0.42176643  0.04410793    -0.76400
Al625      Al  0.13302965  0.47192651  0.12177484     1.90100
O626        O  0.14130463  0.40870566  0.12723934    -0.75500
O627        O  0.06766469  0.40480496  0.10606643    -0.75400
O628        O  0.10008380  0.40774802  0.19178961    -0.81000
O629        O  0.05043291  0.44473566  0.09438374    -0.79200
O630        O  0.10371519  0.44996714  0.12826836    -1.15400
O631        O  0.07257960  0.49104820  0.09203831    -0.74600
C632        C  0.08882820  0.01065272  0.09460601     0.96200
C633        C  0.16304887  0.42096980  0.13434242     0.92600
Al634      Al  0.10531112  0.41420468  0.11757592     1.55600
O635        O  0.13249276  0.48097024  0.19551034    -0.79200
C636        C  0.04745945  0.41932731  0.09515082     0.96700
C637        C  0.12377509  0.44251906  0.02287956     0.91600
O638        O  0.13350837  0.46279014  0.04908214    -0.84500
O639        O  0.12866611  0.46895485  0.94702479    -0.84000
C640        C  0.07628914  0.42816552  0.77212396     0.95400
O641        O  0.09336297  0.41417497  0.79736788    -0.73100
O642        O  0.13981929  0.42208144  0.82767865    -0.76700
Al643      Al  0.10696226  0.41988583  0.86490558     1.49000
C644        C  0.16152346  0.42760382  0.84997466     0.90700
O645        O  0.13450971  0.48404991  0.80074238    -0.82900
O646        O  0.07379292  0.49403567  0.90703324    -0.76400
Al647      Al  0.13231407  0.47723441  0.87567153     1.90100
O648        O  0.09005192  0.49488353  0.79844050    -0.75500
O649        O  0.04968360  0.44834823  0.89094425    -0.75400
O650        O  0.06528386  0.44931252  0.79034752    -0.81000
O651        O  0.07243311  0.40979947  0.89415083    -0.79200
O652        O  0.10306269  0.45541464  0.86343485    -1.15400
O653        O  0.12105239  0.42360964  0.93675224    -0.74600
C654        C  0.12489957  0.44489496  0.96577343     0.96200
C655        C  0.11313154  0.49154362  0.77517232     0.92600
Al656      Al  0.07188072  0.47074225  0.84827173     1.55600
O657        O  0.16241498  0.44986477  0.87425175    -0.79200
C658        C  0.05040195  0.42289253  0.89861790     0.96700
C659        C  0.08805251  0.01502618  0.90188453     0.91600
O660        O  0.11228694  0.01210235  0.88517066    -0.84500
O661        O  0.49048860  0.10446198  0.10734160    -0.84000
C662        C  0.07647924  0.07288539  0.21855408     0.95400
O663        O  0.05819855  0.05760877  0.19846994    -0.73100
O664        O  0.00983968  0.07846566  0.19777870    -0.76700
Al665      Al  0.03242961  0.06284721  0.14434843     1.49000
C666        C  0.00811429  0.10189180  0.21936185     0.90700
O667        O  0.04997954  0.15420079  0.13542197    -0.82900
O668        O  0.07477574  0.10278874  0.04408029    -0.76400
Al669      Al  0.02463075  0.12411928  0.12176663     1.90100
O670        O  0.08784023  0.13239739  0.12717896    -0.75500
O671        O  0.09174288  0.05875330  0.10604704    -0.75400
O672        O  0.08880911  0.09118750  0.19175981    -0.81000
O673        O  0.05181891  0.04152076  0.09434780    -0.79200
O674        O  0.04658873  0.09480207  0.12825299    -1.15400
O675        O  0.50550282  0.06364799  0.09207552    -0.74600
C676        C  0.48590487  0.07990332  0.09463087     0.96200
C677        C  0.07558237  0.15414296  0.13431233     0.92600
Al678      Al  0.08234401  0.09640221  0.11754355     1.55600
O679        O  0.01558789  0.12357987  0.19549890    -0.79200
C680        C  0.07722304  0.03854702  0.09511420     0.96700
C681        C  0.05402965  0.11486883  0.02285904     0.91600
O682        O  0.03376402  0.12460354  0.04906844    -0.84500
O683        O  0.02760669  0.11978206  0.94699534    -0.84000
C684        C  0.06839597  0.06739335  0.77211131     0.95400
O685        O  0.08238743  0.08446552  0.79736258    -0.73100
O686        O  0.07448176  0.13092479  0.82765446    -0.76700
Al687      Al  0.07667211  0.09806805  0.86489374     1.49000
C688        C  0.06897322  0.15263384  0.84995309     0.90700
O689        O  0.01253113  0.12563088  0.80070529    -0.82900
O690        O  0.00252721  0.06490592  0.90699752    -0.76400
Al691      Al  0.01933872  0.12343443  0.87563789     1.90100
O692        O  0.00169078  0.08116648  0.79840635    -0.75500
O693        O  0.04820839  0.04078286  0.89092279    -0.75400
O694        O  0.04725105  0.05638898  0.79032518    -0.81000
O695        O  0.08675028  0.06353649  0.89414933    -0.79200
O696        O  0.04114966  0.09417299  0.86341077    -1.15400
O697        O  0.07294307  0.11216153  0.93673873    -0.74600
C698        C  0.05165916  0.11600645  0.96575249     0.96200
C699        C  0.00503418  0.10424917  0.77513786     0.92600
Al700      Al  0.02582173  0.06298825  0.84824408     1.55600
O701        O  0.04671561  0.15353494  0.87422858    -0.79200
C702        C  0.07365882  0.04150208  0.89861264     0.96700
C703        C  0.48154317  0.07917316  0.90184470     0.91600
O704        O  0.48447136  0.10340985  0.88512354    -0.84500
O705        O  0.22786126  0.86977126  0.04575325    -0.84000
C706        C  0.18707973  0.81737250  0.22063936     0.95400
O707        O  0.17308729  0.83444447  0.19539206    -0.73100
O708        O  0.18098869  0.88090736  0.16509940    -0.76700
Al709      Al  0.17879886  0.84805031  0.12785828     1.49000
C710        C  0.18649830  0.90261591  0.14280229     0.90700
O711        O  0.24294179  0.87561118  0.19203815    -0.82900
O712        O  0.25293924  0.81488921  0.08573584    -0.76400
Al713      Al  0.23613190  0.87341771  0.11710887     1.90100
O714        O  0.25378523  0.83114802  0.19432801    -0.75500
O715        O  0.20726003  0.79076412  0.10182661    -0.75400
O716        O  0.20822586  0.80637037  0.20242283    -0.81000
O717        O  0.16871897  0.81351865  0.09860240    -0.79200
O718        O  0.21432123  0.84415549  0.12933513    -1.15400
O719        O  0.18252562  0.86214693  0.05601107    -0.74600
C720        C  0.20380895  0.86599969  0.02699794     0.96200
C721        C  0.25043839  0.85422952  0.21760099     0.92600
Al722      Al  0.22965021  0.81297043  0.14449719     1.55600
O723        O  0.20875604  0.90351795  0.11852938    -0.79200
C724        C  0.18180957  0.79148398  0.09414426     0.96700
C725        C  0.27392406  0.82915564  0.09088400     0.91600
O726        O  0.27099802  0.85339236  0.10761053    -0.84500
O727        O  0.26498674  0.85448680  0.88540746    -0.84000
C728        C  0.17900062  0.82290425  0.77417892     0.95400
O729        O  0.19728795  0.80763373  0.79425650    -0.73100
O730        O  0.24564374  0.82849698  0.79496617    -0.76700
Al731      Al  0.22305165  0.81287075  0.84838518     1.49000
C732        C  0.24736410  0.85192316  0.77338316     0.90700
O733        O  0.20548730  0.90422057  0.85733947    -0.82900
O734        O  0.18069317  0.85279891  0.94865767    -0.76400
Al735      Al  0.23084062  0.87414133  0.87098628     1.90100
O736        O  0.16762807  0.88241188  0.86556004    -0.75500
O737        O  0.16373648  0.80876646  0.88668338    -0.75400
O738        O  0.16666718  0.84120277  0.80097600    -0.81000
O739        O  0.20366180  0.79153454  0.89837011    -0.79200
O740        O  0.20888628  0.84482195  0.86448763    -1.15400
O741        O  0.24997345  0.81367208  0.90066746    -0.74600
C742        C  0.26957216  0.82992662  0.89811413     0.96200
C743        C  0.17988422  0.90415963  0.85843734     0.92600
Al744      Al  0.17312990  0.84641629  0.87519215     1.55600
O745        O  0.23988590  0.87360963  0.79725004    -0.79200
C746        C  0.17825841  0.78856117  0.89761326     0.96700
C747        C  0.20143858  0.86487576  0.96988763     0.91600
O748        O  0.22170395  0.87461623  0.94368665    -0.84500
O749        O  0.37866077  0.76869360  0.04572180    -0.84000
C750        C  0.32628370  0.80948069  0.22062408     0.95400
O751        O  0.34336491  0.82346898  0.19539204    -0.73100
O752        O  0.38981899  0.81556091  0.16507397    -0.76700
Al753      Al  0.35696062  0.81776217  0.12784954     1.49000
C754        C  0.41152179  0.81003887  0.14277274     0.90700
O755        O  0.38450128  0.75359533  0.19200027    -0.82900
O756        O  0.32378664  0.74361660  0.08570097    -0.76400
Al757      Al  0.38230737  0.76041231  0.11707302     1.90100
O758        O  0.34004158  0.74276708  0.19429859    -0.75500
O759        O  0.29968162  0.78930497  0.10178317    -0.75400
O760        O  0.31527399  0.78833953  0.20238799    -0.81000
O761        O  0.32242980  0.82785534  0.09861323    -0.79200
O762        O  0.35305760  0.78223420  0.12930995    -1.15400
O763        O  0.37104753  0.81403915  0.05599829    -0.74600
C764        C  0.37489628  0.79275391  0.02697579     0.96200
C765        C  0.36312238  0.74610415  0.21756680     0.92600
Al766      Al  0.32187364  0.76690928  0.14446325     1.55600
O767        O  0.41241066  0.78777885  0.11849460    -0.79200
C768        C  0.30039866  0.81476255  0.09413185     0.96700
C769        C  0.33804494  0.72262531  0.09084939     0.91600
O770        O  0.36227842  0.72554685  0.10756947    -0.84500
O771        O  0.36338258  0.73157517  0.88539314    -0.84000
C772        C  0.33179816  0.81756585  0.77417244     0.95400
O773        O  0.31653606  0.79927222  0.79425078    -0.73100
O774        O  0.33739648  0.75090867  0.79496786    -0.76700
Al775      Al  0.32177466  0.77351352  0.84838518     1.49000
C776        C  0.36081643  0.74919553  0.77337081     0.90700
O777        O  0.41311058  0.79107437  0.85732997    -0.82900
O778        O  0.36170585  0.81588319  0.94864065    -0.76400
Al779      Al  0.38303426  0.76572358  0.87097022     1.90100
O780        O  0.39131147  0.82894598  0.86552276    -0.75500
O781        O  0.31767004  0.83284486  0.88667734    -0.75400
O782        O  0.35009455  0.82990549  0.80096102    -0.81000
O783        O  0.30044010  0.79291319  0.89835963    -0.79200
O784        O  0.35372096  0.78768366  0.86447555    -1.15400
O785        O  0.32258190  0.74659890  0.90068567    -0.74600
C786        C  0.33882890  0.72699544  0.89812207     0.96200
C787        C  0.41305424  0.81668180  0.85841259     0.92600
Al788      Al  0.35531714  0.82344641  0.87517466     1.55600
O789        O  0.38249969  0.75667908  0.79723272    -0.79200
C790        C  0.29746673  0.81832156  0.89759800     0.96700
C791        C  0.37377592  0.79513038  0.96986940     0.91600
O792        O  0.38351123  0.77486044  0.94366622    -0.84500
O793        O  0.27760310  0.61786713  0.04571797    -0.84000
C794        C  0.31838916  0.67025435  0.22061202     0.95400
O795        O  0.33238250  0.65318837  0.19535508    -0.73100
O796        O  0.32447981  0.60672687  0.16506198    -0.76700
Al797      Al  0.32666656  0.63958395  0.12782381     1.49000
C798        C  0.31897088  0.58501783  0.14276316     0.90700
O799        O  0.26252411  0.61201720  0.19200650    -0.82900
O800        O  0.25252216  0.67274516  0.08571767    -0.76400
Al801      Al  0.26933374  0.61421490  0.11707458     1.90100
O802        O  0.25167997  0.65648015  0.19430429    -0.75500
O803        O  0.29820084  0.69687010  0.10181213    -0.75400
O804        O  0.29723987  0.68125595  0.20240303    -0.81000
O805        O  0.33674135  0.67411486  0.09856566    -0.79200
O806        O  0.29114342  0.64347705  0.12930635    -1.15400
O807        O  0.32293881  0.62548862  0.05598124    -0.74600
C808        C  0.30165554  0.62164151  0.02696549     0.96200
C809        C  0.25502460  0.63339703  0.21757411     0.92600
Al810      Al  0.27581356  0.67466053  0.14447762     1.55600
O811        O  0.29671227  0.58411566  0.11848882    -0.79200
C812        C  0.32365059  0.69615046  0.09411425     0.96700
C813        C  0.23153786  0.65847805  0.09086642     0.91600
O814        O  0.23446610  0.63423974  0.10758225    -0.84500
O815        O  0.24048955  0.63317937  0.88537419    -0.84000
C816        C  0.32647880  0.66476220  0.77417304     0.95400
O817        O  0.30819508  0.68003579  0.79425248    -0.73100
O818        O  0.25983667  0.65917773  0.79494387    -0.76700
Al819      Al  0.28242830  0.67479674  0.84837386     1.49000
C820        C  0.25811481  0.63575228  0.77335606     0.90700
O821        O  0.29998284  0.58344449  0.85729180    -0.82900
O822        O  0.32477478  0.63485726  0.94864180    -0.76400
Al823      Al  0.27463246  0.61352376  0.87094895     1.90100
O824        O  0.33784269  0.60524900  0.86554491    -0.75500
O825        O  0.34174287  0.67889356  0.88668004    -0.75400
O826        O  0.33880969  0.64646058  0.80096692    -0.81000
O827        O  0.30181921  0.69612673  0.89837154    -0.79200
O828        O  0.29658906  0.64284253  0.86446764    -1.15400
O829        O  0.25550419  0.67399277  0.90064931    -0.74600
C830        C  0.23590618  0.65773717  0.89809136     0.96200
C831        C  0.32558569  0.58350322  0.85840535     0.92600
Al832      Al  0.33234408  0.64124419  0.87518125     1.55600
O833        O  0.26559038  0.61406426  0.79721657    -0.79200
C834        C  0.32722362  0.69909935  0.89760872     0.96700
C835        C  0.30402836  0.62277586  0.96985983     0.91600
O836        O  0.28376496  0.61303857  0.94364738    -0.84500
O837        O  0.12680144  0.71894415  0.04573926    -0.84000
C838        C  0.17917635  0.67814231  0.22062486     0.95400
O839        O  0.16209849  0.66415343  0.19538573    -0.73100
O840        O  0.11564599  0.67206379  0.16507189    -0.76700
Al841      Al  0.14850273  0.66986684  0.12784453     1.49000
C842        C  0.09394217  0.67758770  0.14277848     0.90700
O843        O  0.12095978  0.73402613  0.19202615    -0.82900
O844        O  0.18167364  0.74401681  0.08573073    -0.76400
Al845      Al  0.12315369  0.72721695  0.11709478     1.90100
O846        O  0.16541898  0.74485633  0.19432775    -0.75500
O847        O  0.20578079  0.69832726  0.10179777    -0.75400
O848        O  0.19018597  0.69928486  0.20239901    -0.81000
O849        O  0.18303296  0.65977730  0.09860501    -0.79200
O850        O  0.15240424  0.70539470  0.12932256    -1.15400
O851        O  0.13441689  0.67359794  0.05599085    -0.74600
C852        C  0.13057148  0.69488742  0.02697891     0.96200
C853        C  0.14233875  0.74151699  0.21759620     0.92600
Al854      Al  0.18358729  0.72071912  0.14448377     1.55600
O855        O  0.09305098  0.69984841  0.11850468    -0.79200
C856        C  0.20506326  0.67287089  0.09412995     0.96700
C857        C  0.16741481  0.76500739  0.09088422     0.91600
O858        O  0.14318202  0.76208453  0.10760642    -0.84500
O859        O  0.14209938  0.75608747  0.88540888    -0.84000
C860        C  0.17368164  0.67010619  0.77415350     0.95400
O861        O  0.18894306  0.68839975  0.79423816    -0.73100
O862        O  0.16808228  0.73676171  0.79498466    -0.76700
Al863      Al  0.18370494  0.71415269  0.84838885     1.49000
C864        C  0.14466185  0.73847222  0.77338728     0.90700
O865        O  0.09236572  0.69659435  0.85734879    -0.82900
O866        O  0.14376888  0.67177116  0.94862877    -0.76400
Al867      Al  0.12244658  0.72194109  0.87098323     1.90100
O868        O  0.11416828  0.65872225  0.86549226    -0.75500
O869        O  0.18780789  0.65481878  0.88666185    -0.75400
O870        O  0.15538600  0.65776532  0.80093997    -0.81000
O871        O  0.20503889  0.69474956  0.89835515    -0.79200
O872        O  0.15175903  0.69998082  0.86447574    -1.15400
O873        O  0.18289936  0.74106183  0.90070100    -0.74600
C874        C  0.16665166  0.76066735  0.89813570     0.96200
C875        C  0.09242343  0.67098737  0.85840754     0.92600
Al876      Al  0.15016146  0.66421724  0.87515636     1.55600
O877        O  0.12297900  0.73098799  0.79724783    -0.79200
C878        C  0.20801192  0.66934177  0.89758503     0.96700
C879        C  0.13170080  0.69252195  0.96986899     0.91600
O880        O  0.12197273  0.71279935  0.94367640    -0.84500
O881        O  0.37866758  0.71892933  0.44698580    -0.84000
C882        C  0.32627897  0.67813959  0.27210148     0.95400
O883        O  0.34334982  0.66414494  0.29734457    -0.73100
O884        O  0.38980645  0.67204632  0.32764705    -0.76700
Al885      Al  0.35695268  0.66985646  0.36488219     1.49000
C886        C  0.41151328  0.67757055  0.34993164     0.90700
O887        O  0.38450258  0.73401547  0.30070269    -0.82900
O888        O  0.32379510  0.74400433  0.40701190    -0.76400
Al889      Al  0.38231135  0.72720344  0.37563141     1.90100
O890        O  0.34004637  0.74485537  0.29841347    -0.75500
O891        O  0.29967817  0.69832369  0.39091966    -0.75400
O892        O  0.31527633  0.69928737  0.29032375    -0.81000
O893        O  0.32242434  0.65977352  0.39413183    -0.79200
O894        O  0.35305719  0.70538511  0.36340464    -1.15400
O895        O  0.37104481  0.67358480  0.43673173    -0.74600
C896        C  0.37489507  0.69487409  0.46574500     0.96200
C897        C  0.36312406  0.74151169  0.27513839     0.92600
Al898      Al  0.32187637  0.72071509  0.34824722     1.55600
O899        O  0.41240871  0.69983175  0.37420469    -0.79200
C900        C  0.30039471  0.67286837  0.39859661     0.96700
C901        C  0.33805502  0.76499506  0.40186320     0.91600
O902        O  0.36228686  0.76207205  0.38513538    -0.84500
O903        O  0.36337229  0.75607311  0.60733056    -0.84000
C904        C  0.33180002  0.67008148  0.71857129     0.95400
O905        O  0.31653225  0.68836927  0.69848585    -0.73100
O906        O  0.33739216  0.73673290  0.69777200    -0.76700
Al907      Al  0.32176907  0.71413210  0.64435230     1.49000
C908        C  0.36081446  0.73845174  0.71935854     0.90700
O909        O  0.41310475  0.69657906  0.63538271    -0.82900
O910        O  0.36169704  0.67175806  0.54409192    -0.76400
Al911      Al  0.38302572  0.72192612  0.62174894     1.90100
O912        O  0.39130546  0.65870638  0.62720737    -0.75500
O913        O  0.31766430  0.65480371  0.60606506    -0.75400
O914        O  0.35009645  0.65774358  0.69177985    -0.81000
O915        O  0.30043984  0.69473677  0.59436782    -0.79200
O916        O  0.35371487  0.69996419  0.62825490    -1.15400
O917        O  0.32256938  0.74105017  0.59206021    -0.74600
C918        C  0.33881679  0.76065400  0.59461940     0.96200
C919        C  0.41304850  0.67097231  0.63430500     0.92600
Al920      Al  0.35531198  0.66420042  0.61756204     1.55600
O921        O  0.38249673  0.73097373  0.69548716    -0.79200
C922        C  0.29746326  0.66933003  0.59513208     0.96700
C923        C  0.37376722  0.69250852  0.52285498     0.91600
O924        O  0.38349775  0.71278386  0.54905097    -0.84500
O925        O  0.27761341  0.86975861  0.44701979    -0.84000
C926        C  0.31839140  0.81736720  0.27211274     0.95400
O927        O  0.33239017  0.83442567  0.29738094    -0.73100
O928        O  0.32448052  0.88089159  0.32766449    -0.76700
Al929      Al  0.32667308  0.84803678  0.36491127     1.49000
C930        C  0.31897121  0.90260078  0.34996149     0.90700
O931        O  0.26252584  0.87560625  0.30074239    -0.82900
O932        O  0.25253780  0.81487265  0.40702303    -0.76400
Al933      Al  0.26934025  0.87340660  0.37566861     1.90100
O934        O  0.25167596  0.83114604  0.29844288    -0.75500
O935        O  0.29821248  0.79074673  0.39088740    -0.75400
O936        O  0.29723569  0.80637468  0.29030868    -0.81000
O937        O  0.33674903  0.81350768  0.39417898    -0.79200
O938        O  0.29114998  0.84414399  0.36343009    -1.15400
O939        O  0.32294832  0.86213832  0.43675407    -0.74600
C940        C  0.30166676  0.86599025  0.46577167     0.96200
C941        C  0.25502538  0.85422763  0.27517326     0.92600
Al942      Al  0.27581839  0.81296212  0.34824881     1.55600
O943        O  0.29671654  0.90350422  0.37424232    -0.79200
C944        C  0.32366033  0.79147000  0.39860354     0.96700
C945        C  0.23155331  0.82914035  0.40188894     0.91600
O946        O  0.23447728  0.85337969  0.38517492    -0.84500
O947        O  0.24049199  0.85449182  0.60735418    -0.84000
C948        C  0.32646989  0.82289031  0.71857740     0.95400
O949        O  0.30817497  0.80762694  0.69850443    -0.73100
O950        O  0.25982278  0.82849769  0.69778491    -0.76700
Al951      Al  0.28241700  0.81286724  0.64437149     1.49000
C952        C  0.25810992  0.85192316  0.71937569     0.90700
O953        O  0.29999777  0.90421385  0.63542385    -0.82900
O954        O  0.32478384  0.85279062  0.54410709    -0.76400
Al955      Al  0.27464057  0.87413934  0.62177854     1.90100
O956        O  0.33785375  0.88239869  0.62721182    -0.75500
O957        O  0.34173400  0.80875396  0.60607047    -0.75400
O958        O  0.33880790  0.84118573  0.69178119    -0.81000
O959        O  0.30180692  0.79152296  0.59439666    -0.79200
O960        O  0.29658960  0.84481571  0.62827411    -1.15400
O961        O  0.25550046  0.81367662  0.59207893    -0.74600
C962        C  0.23590509  0.82993337  0.59463532     0.96200
C963        C  0.32560085  0.90414786  0.63432940     0.92600
Al964      Al  0.33234598  0.84640408  0.61757026     1.55600
O965        O  0.26559590  0.87360849  0.69551441    -0.79200
C966        C  0.32721141  0.78854929  0.59514734     0.96700
C967        C  0.30403968  0.86486930  0.52287956     0.91600
O968        O  0.28377618  0.87461313  0.54908037    -0.84500
O969        O  0.12680754  0.76870021  0.44702041    -0.84000
C970        C  0.17919129  0.80948200  0.27212744     0.95400
O971        O  0.16212640  0.82347904  0.29737893    -0.73100
O972        O  0.11566644  0.81557932  0.32767687    -0.76700
Al973      Al  0.14852161  0.81776670  0.36491153     1.49000
C974        C  0.09396102  0.81005755  0.34996355     0.90700
O975        O  0.12096260  0.75360601  0.30073638    -0.82900
O976        O  0.18167811  0.74361419  0.40703301    -0.76400
Al977      Al  0.12315930  0.76042180  0.37566592     1.90100
O978        O  0.16541693  0.74276157  0.29844142    -0.75500
O979        O  0.20579697  0.78929495  0.39093048    -0.75400
O980        O  0.19018857  0.78832923  0.29033848    -0.81000
O981        O  0.18304890  0.82784387  0.39417220    -0.79200
O982        O  0.15241424  0.78223684  0.36343291    -1.15400
O983        O  0.13442645  0.81404395  0.43675189    -0.74600
C984        C  0.13057702  0.79275979  0.46576961     0.96200
C985        C  0.14233881  0.74610748  0.27516977     0.92600
Al986      Al  0.18359276  0.76690310  0.34826694     1.55600
O987        O  0.09306438  0.78779617  0.37423847    -0.79200
C988        C  0.20507917  0.81474820  0.39862576     0.96700
C989        C  0.16741540  0.72262520  0.40188654     0.91600
O990        O  0.14318138  0.72555128  0.38516982    -0.84500
O991        O  0.14210204  0.73158563  0.60735207    -0.84000
C992        C  0.17367692  0.81758338  0.71857854     0.95400
O993        O  0.18894331  0.79929352  0.69849592    -0.73100
O994        O  0.16808525  0.75092884  0.69778632    -0.76700
Al995      Al  0.18370554  0.77352945  0.64436491     1.49000
C996        C  0.14466344  0.74921283  0.71937621     0.90700
O997        O  0.09237035  0.79107849  0.63541369    -0.82900
O998        O  0.14377198  0.81588958  0.54410289    -0.76400
Al999      Al  0.12244738  0.76573149  0.62177440     1.90100
O1000       O  0.11416702  0.82895140  0.62721843    -0.75500
O1001       O  0.18780691  0.83285735  0.60606906    -0.75400
O1002       O  0.15537974  0.82992019  0.69178611    -0.81000
O1003       O  0.20503400  0.79292515  0.59438036    -0.79200
O1004       O  0.15175851  0.78769496  0.62827108    -1.15400
O1005       O  0.18290321  0.74661064  0.59207171    -0.74600
C1006       C  0.16665504  0.72700721  0.59462575     0.96200
C1007       C  0.09242601  0.81668524  0.63432996     0.92600
Al1008     Al  0.15016006  0.82345729  0.61756980     1.55600
O1009       O  0.12298092  0.75668977  0.69550871    -0.79200
C1010       C  0.20800938  0.81833285  0.59514526     0.96700
C1011       C  0.13170237  0.79513647  0.52287764     0.91600
O1012       O  0.12196924  0.77486565  0.54908001    -0.84500
O1013       O  0.22785723  0.61786938  0.44700194    -0.84000
C1014       C  0.18706590  0.67025566  0.27211355     0.95400
O1015       O  0.17307458  0.65318584  0.29736586    -0.73100
O1016       O  0.18098539  0.60672647  0.32765559    -0.76700
Al1017     Al  0.17879196  0.63958269  0.36489701     1.49000
C1018       C  0.18649444  0.58501904  0.34995816     0.90700
O1019       O  0.24293458  0.61201812  0.30071427    -0.82900
O1020       O  0.25293614  0.67274549  0.40700459    -0.76400
Al1021     Al  0.23612619  0.61421647  0.37564620     1.90100
O1022       O  0.25377369  0.65648249  0.29841360    -0.75500
O1023       O  0.20725658  0.69686682  0.39092451    -0.75400
O1024       O  0.20821309  0.68125896  0.29032715    -0.81000
O1025       O  0.16871403  0.67411420  0.39415541    -0.79200
O1026       O  0.21431469  0.64347765  0.36341638    -1.15400
O1027       O  0.18252082  0.62548859  0.43674161    -0.74600
C1028       C  0.20380529  0.62164314  0.46575598     0.96200
C1029       C  0.25043150  0.63339803  0.27514648     0.92600
Al1030     Al  0.22964241  0.67466138  0.34824855     1.55600
O1031       O  0.20875116  0.58411760  0.37423482    -0.79200
C1032       C  0.18180637  0.69614847  0.39861650     0.96700
C1033       C  0.27392006  0.65847757  0.40185592     0.91600
O1034       O  0.27099186  0.63424053  0.38513584    -0.84500
O1035       O  0.26498225  0.63317347  0.60733439    -0.84000
C1036       C  0.17900894  0.66478112  0.71855645     0.95400
O1037       O  0.19730277  0.68004416  0.69848038    -0.73100
O1038       O  0.24565607  0.65917605  0.69775648    -0.76700
Al1039     Al  0.22305840  0.67480021  0.64434207     1.49000
C1040       C  0.24736838  0.63575194  0.71935010     0.90700
O1041       O  0.20548325  0.58345104  0.63541920    -0.82900
O1042       O  0.18069147  0.63486074  0.54408769    -0.76400
Al1043     Al  0.23083722  0.61352566  0.62176426     1.90100
O1044       O  0.16762619  0.60526446  0.62720808    -0.75500
O1045       O  0.16373923  0.67890510  0.60604342    -0.75400
O1046       O  0.16667124  0.64648382  0.69176269    -0.81000
O1047       O  0.20366446  0.69613813  0.59436430    -0.79200
O1048       O  0.20888703  0.64284921  0.62825287    -1.15400
O1049       O  0.24997227  0.67398716  0.59204687    -0.74600
C1050       C  0.26956941  0.65772923  0.59461201     0.96200
C1051       C  0.17988110  0.58351566  0.63433068     0.92600
Al1052     Al  0.17313086  0.64125715  0.61755150     1.55600
O1053       O  0.23988235  0.61406508  0.69549586    -0.79200
C1054       C  0.17826086  0.69911217  0.59512573     0.96700
C1055       C  0.20143562  0.62277852  0.52286432     0.91600
O1056       O  0.22170097  0.61304203  0.54906867    -0.84500
O1057       O  0.47786183  0.61977215  0.54570882    -0.84000
C1058       C  0.43707553  0.56738774  0.72060623     0.95400
O1059       O  0.42307930  0.58444822  0.69533885    -0.73100
O1060       O  0.43098932  0.63091044  0.66505548    -0.76700
Al1061     Al  0.42879918  0.59805517  0.62781044     1.49000
C1062       C  0.43649857  0.65262013  0.64275808     0.90700
O1063       O  0.49294316  0.62562667  0.69199478    -0.82900
O1064       O  0.00294214  0.56489298  0.58571498    -0.76400
Al1065     Al  0.48613211  0.62342542  0.61706376     1.90100
O1066       O  0.50378967  0.58116518  0.69429713    -0.75500
O1067       O  0.45726488  0.54076814  0.60182150    -0.75400
O1068       O  0.45822919  0.55639145  0.70240716    -0.81000
O1069       O  0.41872595  0.56352514  0.59854224    -0.79200
O1070       O  0.46432261  0.59416303  0.62929755    -1.15400
O1071       O  0.43252630  0.61215282  0.55597019    -0.74600
C1072       C  0.45380881  0.61599921  0.52695456     0.96200
C1073       C  0.50044330  0.60424801  0.71756445     0.92600
Al1074     Al  0.47965350  0.56298141  0.64447756     1.55600
O1075       O  0.45875434  0.65352268  0.61848026    -0.79200
C1076       C  0.43181708  0.54148936  0.59410574     0.96700
C1077       C  0.02392535  0.57916160  0.59085754     0.91600
O1078       O  0.02099782  0.60340104  0.60757036    -0.84500
O1079       O  0.01497963  0.60447544  0.38538003    -0.84000
C1080       C  0.42900724  0.57286130  0.27416285     0.95400
O1081       O  0.44730174  0.55759952  0.29423891    -0.73100
O1082       O  0.49565466  0.57846954  0.29496217    -0.76700
Al1083     Al  0.47305752  0.56284494  0.34837660     1.49000
C1084       C  0.49736621  0.60189256  0.27336529     0.90700
O1085       O  0.45547797  0.65419347  0.35729160    -0.82900
O1086       O  0.43069250  0.60278190  0.44862689    -0.76400
Al1087     Al  0.48083377  0.62412049  0.37094791     1.90100
O1088       O  0.41762231  0.63237852  0.36550995    -0.75500
O1089       O  0.41373858  0.55873665  0.38667314    -0.75400
O1090       O  0.41666844  0.59115856  0.30095565    -0.81000
O1091       O  0.45366417  0.54150494  0.39835295    -0.79200
O1092       O  0.45888503  0.59479542  0.36446231    -1.15400
O1093       O  0.99997106  0.56366161  0.40067408    -0.74600
C1094       C  0.01956750  0.57991979  0.39810953     0.96200
C1095       C  0.42987612  0.65412776  0.35838588     0.92600
Al1096     Al  0.42312936  0.59638559  0.37516489     1.55600
O1097       O  0.48987754  0.62358019  0.29721663    -0.79200
C1098       C  0.42826029  0.53853141  0.39759062     0.96700
C1099       C  0.45143636  0.61486548  0.46984929     0.91600
O1100       O  0.47169991  0.62460472  0.44364264    -0.84500
O1101       O  0.02761918  0.86788110  0.54573960    -0.84000
C1102       C  0.06839941  0.92027672  0.72063657     0.95400
O1103       O  0.08239356  0.90320820  0.69538443    -0.73100
O1104       O  0.07448683  0.85674495  0.66509381    -0.76700
Al1105     Al  0.07668027  0.88960099  0.62785143     1.49000
C1106       C  0.06897692  0.83503668  0.64279397     0.90700
O1107       O  0.01253492  0.86203719  0.69201941    -0.82900
O1108       O  0.00254176  0.92276297  0.58572635    -0.76400
Al1109     Al  0.01934675  0.86423349  0.61709219     1.90100
O1110       O  0.00169138  0.90649989  0.69431575    -0.75500
O1111       O  0.04821875  0.94688702  0.60183314    -0.75400
O1112       O  0.04725081  0.93127601  0.70242437    -0.81000
O1113       O  0.08675951  0.92413200  0.59859408    -0.79200
O1114       O  0.04115768  0.89349542  0.62932593    -1.15400
O1115       O  0.07295473  0.87550310  0.55600375    -0.74600
C1116       C  0.05167182  0.87165154  0.52698745     0.96200
C1117       C  0.00503757  0.88341772  0.71758652     0.92600
Al1118     Al  0.02582817  0.92467929  0.64449327     1.55600
O1119       O  0.04672081  0.83413471  0.61851520    -0.79200
C1120       C  0.07366856  0.94616712  0.59414259     0.96700
C1121       C  0.48155643  0.90849647  0.59086830     0.91600
O1122       O  0.48448248  0.88425871  0.60758952    -0.84500
O1123       O  0.49048806  0.88315074  0.38540771    -0.84000
C1124       C  0.07645648  0.91476216  0.27417068     0.95400
O1125       O  0.05815702  0.93001991  0.29424135    -0.73100
O1126       O  0.00980648  0.90914609  0.29498199    -0.76700
Al1127     Al  0.03240581  0.92477851  0.34838605     1.49000
C1128       C  0.00809808  0.88572125  0.27338696     0.90700
O1129       O  0.04999497  0.83343316  0.35733550    -0.82900
O1130       O  0.07478430  0.88485478  0.44864592    -0.76400
Al1131     Al  0.02463701  0.86350586  0.37098124     1.90100
O1132       O  0.08785063  0.85525161  0.36552803    -0.75500
O1133       O  0.09172608  0.92889529  0.38668300    -0.75400
O1134       O  0.08879823  0.89646890  0.30096786    -0.81000
O1135       O  0.05179889  0.94612665  0.39835032    -0.79200
O1136       O  0.04658332  0.89283149  0.36448165    -1.15400
O1137       O  0.50549623  0.92396567  0.40068954    -0.74600
C1138       C  0.48589968  0.90770802  0.39812668     0.96200
C1139       C  0.07559835  0.83350115  0.35841716     0.92600
Al1140     Al  0.08234055  0.89124570  0.37517971     1.55600
O1141       O  0.01558897  0.86403664  0.29724468    -0.79200
C1142       C  0.07720239  0.94910088  0.39759895     0.96700
C1143       C  0.05404157  0.87277514  0.46987874     0.91600
O1144       O  0.03377610  0.86303255  0.44367815    -0.84500
O1145       O  0.37681154  0.96894169  0.54571440    -0.84000
C1146       C  0.42919695  0.92816481  0.72061627     0.95400
O1147       O  0.41212901  0.91416841  0.69536889    -0.73100
O1148       O  0.36566965  0.92207009  0.66506763    -0.76700
Al1149     Al  0.39852441  0.91987742  0.62783376     1.49000
C1150       C  0.34396360  0.92759164  0.64277965     0.90700
O1151       O  0.37097014  0.98404216  0.69199136    -0.82900
O1152       O  0.43168469  0.99402356  0.58569531    -0.76400
Al1153     Al  0.37316546  0.97722310  0.61706569     1.90100
O1154       O  0.41542538  0.99488423  0.69428732    -0.75500
O1155       O  0.45580154  0.94834355  0.60180926    -0.75400
O1156       O  0.44019537  0.94931577  0.70240030    -0.81000
O1157       O  0.43305198  0.90979501  0.59858013    -0.79200
O1158       O  0.40241960  0.95540673  0.62930410    -1.15400
O1159       O  0.38442959  0.92359814  0.55598941    -0.74600
C1160       C  0.38057993  0.94488191  0.52696855     0.96200
C1161       C  0.39234769  0.99153987  0.71755887     0.92600
Al1162     Al  0.43359948  0.97073897  0.64446723     1.55600
O1163       O  0.34306860  0.94985093  0.61849791    -0.79200
C1164       C  0.45508358  0.92288856  0.59412443     0.96700
C1165       C  0.41742399  0.51501412  0.59083673     0.91600
O1166       O  0.39318998  0.51209088  0.60755487    -0.84500
O1167       O  0.39210004  0.50605498  0.38537540    -0.84000
C1168       C  0.42366699  0.92005097  0.27416433     0.95400
O1169       O  0.43893770  0.93833722  0.29424632    -0.73100
O1170       O  0.41808051  0.98670299  0.29493389    -0.76700
Al1171     Al  0.43370150  0.96410731  0.34836559     1.49000
C1172       C  0.39465712  0.98842454  0.27334831     0.90700
O1173       O  0.34236688  0.94655979  0.35732170    -0.82900
O1174       O  0.39377362  0.92175125  0.44863779    -0.76400
Al1175     Al  0.37244451  0.97190799  0.37095798     1.90100
O1176       O  0.36416219  0.90868695  0.36553486    -0.75500
O1177       O  0.43780411  0.90478269  0.38667111    -0.75400
O1178       O  0.40536975  0.90771571  0.30095604    -0.81000
O1179       O  0.45502893  0.94471611  0.39836045    -0.79200
O1180       O  0.40175464  0.94994381  0.36446430    -1.15400
O1181       O  0.43290307  0.99103183  0.40064661    -0.74600
C1182       C  0.41665502  0.51063428  0.39809409     0.96200
C1183       C  0.34242104  0.92095301  0.35841868     0.92600
Al1184     Al  0.40015607  0.91418146  0.37517292     1.55600
O1185       O  0.37297541  0.98094992  0.29721973    -0.79200
C1186       C  0.45800459  0.91930847  0.39760176     0.96700
C1187       C  0.38170355  0.94250457  0.46986170     0.91600
O1188       O  0.37196906  0.96277426  0.44365539    -0.84500
O1189       O  0.12866812  0.51871227  0.54574464    -0.84000
C1190       C  0.07628580  0.55950676  0.72062373     0.95400
O1191       O  0.09335836  0.57349945  0.69538272    -0.73100
O1192       O  0.13981409  0.56559709  0.66507959    -0.76700
Al1193     Al  0.10695859  0.56778631  0.62784654     1.49000
C1194       C  0.16151982  0.56007290  0.64279118     0.90700
O1195       O  0.13451043  0.50362994  0.69203313    -0.82900
O1196       O  0.07380000  0.99363298  0.58572764    -0.76400
Al1197     Al  0.13231629  0.51043938  0.61710165     1.90100
O1198       O  0.09005354  0.49279182  0.69432681    -0.75500
O1199       O  0.04968476  0.53931661  0.60180229    -0.75400
O1200       O  0.06528160  0.53835985  0.70240192    -0.81000
O1201       O  0.07242959  0.57786797  0.59859615    -0.79200
O1202       O  0.10306286  0.53225747  0.62932671    -1.15400
O1203       O  0.12104825  0.56405727  0.55599879    -0.74600
C1204       C  0.12489543  0.54276837  0.52698693     0.96200
C1205       C  0.11313212  0.49613475  0.71759995     0.92600
Al1206     Al  0.07188231  0.51692790  0.64448476     1.55600
O1207       O  0.16241357  0.53781114  0.61852031    -0.79200
C1208       C  0.05040024  0.56477137  0.59412443     0.96700
C1209       C  0.08806103  0.97264358  0.59088124     0.91600
O1210       O  0.11229325  0.97556918  0.60760684    -0.84500
O1211       O  0.11336270  0.98157518  0.38540471    -0.84000
C1212       C  0.08179728  0.56756872  0.27415854     0.95400
O1213       O  0.06652663  0.54928457  0.29424514    -0.73100
O1214       O  0.08738250  0.50091940  0.29495704    -0.76700
Al1215     Al  0.07176250  0.52351939  0.34837779     1.49000
C1216       C  0.11080609  0.49919885  0.27337556     0.90700
O1217       O  0.16309823  0.54106310  0.35734576    -0.82900
O1218       O  0.11169505  0.56588717  0.44864233    -0.76400
Al1219     Al  0.13301873  0.51571952  0.37098393     1.90100
O1220       O  0.14130337  0.57893781  0.36552802    -0.75500
O1221       O  0.06766254  0.58284674  0.38666519    -0.75400
O1222       O  0.10009520  0.57990530  0.30095222    -0.81000
O1223       O  0.05043786  0.54291430  0.39836605    -0.79200
O1224       O  0.10370967  0.53768393  0.36447729    -1.15400
O1225       O  0.07255986  0.99659953  0.40066651    -0.74600
C1226       C  0.08880835  0.97699608  0.39811527     0.96200
C1227       C  0.16304456  0.56666968  0.35842377     0.92600
Al1228     Al  0.10530990  0.57344737  0.37517164     1.55600
O1229       O  0.13248773  0.50667260  0.29724932    -0.79200
C1230       C  0.04746110  0.56832130  0.39759740     0.96700
C1231       C  0.12376480  0.54513579  0.46987672     0.91600
O1232       O  0.13349405  0.52486076  0.44367956    -0.84500
O1233       O  0.39208945  0.98155762  0.10731294    -0.84000
C1234       C  0.42367943  0.56753607  0.21856839     0.95400
O1235       O  0.43893899  0.54924149  0.19848532    -0.73100
O1236       O  0.41807459  0.50088035  0.19774048    -0.76700
Al1237     Al  0.43369934  0.52348914  0.14433588     1.49000
C1238       C  0.39465472  0.49916951  0.21933543     0.90700
O1239       O  0.34236220  0.54105627  0.13537111    -0.82900
O1240       O  0.39376871  0.56587655  0.04409317    -0.76400
Al1241     Al  0.37244047  0.51570651  0.12173699     1.90100
O1242       O  0.36416652  0.57892737  0.12722484    -0.75500
O1243       O  0.43780746  0.58282318  0.10606410    -0.75400
O1244       O  0.40538435  0.57987889  0.19178027    -0.81000
O1245       O  0.45503613  0.54289129  0.09437259    -0.79200
O1246       O  0.40175460  0.53766405  0.12824667    -1.15400
O1247       O  0.43289034  0.99658014  0.09202329    -0.74600
C1248       C  0.41664374  0.97697628  0.09459128     0.96200
C1249       C  0.34242087  0.56666374  0.13431010     0.92600
Al1250     Al  0.40016033  0.57342818  0.11756556     1.55600
O1251       O  0.37297205  0.50665668  0.19547557    -0.79200
C1252       C  0.45801048  0.56829877  0.09514098     0.96700
C1253       C  0.38169947  0.54512724  0.02285105     0.91600
O1254       O  0.37196837  0.52485055  0.04904141    -0.84500
O1255       O  0.37680429  0.51870576  0.94697972    -0.84000
C1256       C  0.42918327  0.55950336  0.77209456     0.95400
O1257       O  0.41210208  0.57349185  0.79732706    -0.73100
O1258       O  0.36564922  0.56558384  0.82764430    -0.76700
Al1259     Al  0.39850695  0.56778175  0.86487117     1.49000
C1260       C  0.34394551  0.56005985  0.84993713     0.90700
O1261       O  0.37096705  0.50362076  0.80069599    -0.82900
O1262       O  0.43167786  0.99363525  0.90700226    -0.76400
Al1263     Al  0.37315888  0.51043148  0.87562569     1.90100
O1264       O  0.41542646  0.49279134  0.79840215    -0.75500
O1265       O  0.45578460  0.53932343  0.89093309    -0.75400
O1266       O  0.44019370  0.53836303  0.79032841    -0.81000
O1267       O  0.43303789  0.57787409  0.89410758    -0.79200
O1268       O  0.40240917  0.53225432  0.86339927    -1.15400
O1269       O  0.38442186  0.56405178  0.93672738    -0.74600
C1270       C  0.38057361  0.54276241  0.96573940     0.96200
C1271       C  0.39234676  0.49613057  0.77513074     0.92600
Al1272     Al  0.43359307  0.51693032  0.84824588     1.55600
O1273       O  0.34305546  0.53779822  0.87421018    -0.79200
C1274       C  0.45506836  0.56478067  0.89858875     0.96700
C1275       C  0.41742047  0.97264418  0.90184940     0.91600
O1276       O  0.39318783  0.97556496  0.88512130    -0.84500
O1277       O  0.01498012  0.88316157  0.10735165    -0.84000
C1278       C  0.42898699  0.91473349  0.21856021     0.95400
O1279       O  0.44726960  0.93000945  0.19848499    -0.73100
O1280       O  0.49562745  0.90915030  0.19779905    -0.76700
Al1281     Al  0.47303946  0.92477457  0.14436946     1.49000
C1282       C  0.49735241  0.88572262  0.21937961     0.90700
O1283       O  0.45548296  0.83342542  0.13541833    -0.82900
O1284       O  0.43069112  0.88484861  0.04408422    -0.76400
Al1285     Al  0.48083507  0.86350476  0.12176963     1.90100
O1286       O  0.41762252  0.85522899  0.12716593    -0.75500
O1287       O  0.41372699  0.92887652  0.10605929    -0.75400
O1288       O  0.41665608  0.89643384  0.19176239    -0.81000
O1289       O  0.45365243  0.94610777  0.09437314    -0.79200
O1290       O  0.45887847  0.89282236  0.12826208    -1.15400
O1291       O  0.99996678  0.92397731  0.09210047    -0.74600
C1292       C  0.01956495  0.90772250  0.09464729     0.96200
C1293       C  0.42988035  0.83348355  0.13430350     0.92600
Al1294     Al  0.42312259  0.89122593  0.11754605     1.55600
O1295       O  0.48987905  0.86403656  0.19550608    -0.79200
C1296       C  0.42824855  0.94908147  0.09512542     0.96700
C1297       C  0.45143738  0.87277160  0.02286038     0.91600
O1298       O  0.47170034  0.86302879  0.04906786    -0.84500
O1299       O  0.47786529  0.86788099  0.94700318    -0.84000
C1300       C  0.43708735  0.92027549  0.77210291     0.95400
O1301       O  0.42309229  0.90320899  0.79735834    -0.73100
O1302       O  0.43099419  0.85674346  0.82765062    -0.76700
Al1303     Al  0.42880495  0.88960129  0.86489060     1.49000
C1304       C  0.43650377  0.83503518  0.84995011     0.90700
O1305       O  0.49295070  0.86203682  0.80072263    -0.82900
O1306       O  0.00294293  0.92276486  0.90701709    -0.76400
Al1307     Al  0.48613798  0.86423341  0.87565007     1.90100
O1308       O  0.50379760  0.90649865  0.79843082    -0.75500
O1309       O  0.45726565  0.94689036  0.89089931    -0.75400
O1310       O  0.45823826  0.93127314  0.79031334    -0.81000
O1311       O  0.41872711  0.92413189  0.89414947    -0.79200
O1312       O  0.46432783  0.89349536  0.86341574    -1.15400
O1313       O  0.43252996  0.87550297  0.93673486    -0.74600
C1314       C  0.45381164  0.87165028  0.96575331     0.96200
C1315       C  0.50044974  0.88341717  0.77515678     0.92600
Al1316     Al  0.47965845  0.92467927  0.84824694     1.55600
O1317       O  0.45876175  0.83413367  0.87422535    -0.79200
C1318       C  0.43181647  0.94616904  0.89859315     0.96700
C1319       C  0.02392793  0.90849826  0.90187504     0.91600
O1320       O  0.02100317  0.88426043  0.88515576    -0.84500
O1321       O  0.11337888  0.50607344  0.10734619    -0.84000
C1322       C  0.08178763  0.92008942  0.21857810     0.95400
O1323       O  0.06652975  0.93838638  0.19849640    -0.73100
O1324       O  0.08739039  0.98674905  0.19775924    -0.76700
Al1325     Al  0.07176915  0.96413936  0.14435073     1.49000
C1326       C  0.11080962  0.98845711  0.21936426     0.90700
O1327       O  0.16310634  0.94657690  0.13541630    -0.82900
O1328       O  0.11170456  0.92176641  0.04410803    -0.76400
Al1329     Al  0.13302967  0.97192647  0.12177495     1.90100
O1330       O  0.14130467  0.90870570  0.12723937    -0.75500
O1331       O  0.06766486  0.90480489  0.10606646    -0.75400
O1332       O  0.10008390  0.90774796  0.19178951    -0.81000
O1333       O  0.05043300  0.94473565  0.09438382    -0.79200
O1334       O  0.10371522  0.94996714  0.12826833    -1.15400
O1335       O  0.07257952  0.99104804  0.09203828    -0.74600
C1336       C  0.08882768  0.51065236  0.09460581     0.96200
C1337       C  0.16304874  0.92096968  0.13434238     0.92600
Al1338     Al  0.10531109  0.91420471  0.11757582     1.55600
O1339       O  0.13249283  0.98097024  0.19551023    -0.79200
C1340       C  0.04745902  0.91932739  0.09515067     0.96700
C1341       C  0.12377529  0.94251946  0.02287959     0.91600
O1342       O  0.13350841  0.96279009  0.04908200    -0.84500
O1343       O  0.12866611  0.96895474  0.94702489    -0.84000
C1344       C  0.07628887  0.92816613  0.77212433     0.95400
O1345       O  0.09336303  0.91417486  0.79736807    -0.73100
O1346       O  0.13981919  0.92208148  0.82767860    -0.76700
Al1347     Al  0.10696225  0.91988588  0.86490566     1.49000
C1348       C  0.16152362  0.92760418  0.84997507     0.90700
O1349       O  0.13450967  0.98404992  0.80074225    -0.82900
O1350       O  0.07379296  0.99403559  0.90703328    -0.76400
Al1351     Al  0.13231412  0.97723448  0.87567160     1.90100
O1352       O  0.09005193  0.99488361  0.79844050    -0.75500
O1353       O  0.04968354  0.94834825  0.89094408    -0.75400
O1354       O  0.06528399  0.94931239  0.79034718    -0.81000
O1355       O  0.07243301  0.90979946  0.89415090    -0.79200
O1356       O  0.10306274  0.95541474  0.86343485    -1.15400
O1357       O  0.12105246  0.92360951  0.93675211    -0.74600
C1358       C  0.12489960  0.94489544  0.96577357     0.96200
C1359       C  0.11313167  0.99154352  0.77517263     0.92600
Al1360     Al  0.07188074  0.97074229  0.84827175     1.55600
O1361       O  0.16241501  0.94986465  0.87425165    -0.79200
C1362       C  0.05040235  0.92289258  0.89861786     0.96700
C1363       C  0.08805255  0.51502603  0.90188450     0.91600
O1364       O  0.11228694  0.51210228  0.88517062    -0.84500
O1365       O  0.49048883  0.60446218  0.10734169    -0.84000
C1366       C  0.07647893  0.57288492  0.21855441     0.95400
O1367       O  0.05819864  0.55760882  0.19846995    -0.73100
O1368       O  0.00983968  0.57846577  0.19777869    -0.76700
Al1369     Al  0.03242955  0.56284724  0.14434842     1.49000
C1370       C  0.00811400  0.60189123  0.21936223     0.90700
O1371       O  0.04997952  0.65420079  0.13542199    -0.82900
O1372       O  0.07477572  0.60278876  0.04408039    -0.76400
Al1373     Al  0.02463071  0.62411928  0.12176669     1.90100
O1374       O  0.08784019  0.63239737  0.12717898    -0.75500
O1375       O  0.09174297  0.55875317  0.10604698    -0.75400
O1376       O  0.08880915  0.59118761  0.19175961    -0.81000
O1377       O  0.05181934  0.54152056  0.09434776    -0.79200
O1378       O  0.04658875  0.59480214  0.12825295    -1.15400
O1379       O  0.50550301  0.56364796  0.09207560    -0.74600
C1380       C  0.48590437  0.57990312  0.09463062     0.96200
C1381       C  0.07558231  0.65414279  0.13431233     0.92600
Al1382     Al  0.08234398  0.59640221  0.11754357     1.55600
O1383       O  0.01558797  0.62358004  0.19549861    -0.79200
C1384       C  0.07722203  0.53854763  0.09511431     0.96700
C1385       C  0.05402961  0.61486893  0.02285875     0.91600
O1386       O  0.03376393  0.62460354  0.04906851    -0.84500
O1387       O  0.02760674  0.61978205  0.94699538    -0.84000
C1388       C  0.06839672  0.56739377  0.77211102     0.95400
O1389       O  0.08238725  0.58446536  0.79736243    -0.73100
O1390       O  0.07448182  0.63092479  0.82765440    -0.76700
Al1391     Al  0.07667206  0.59806805  0.86489379     1.49000
C1392       C  0.06897256  0.65263359  0.84995341     0.90700
O1393       O  0.01253113  0.62563086  0.80070533    -0.82900
O1394       O  0.00252743  0.56490585  0.90699743    -0.76400
Al1395     Al  0.01933869  0.62343439  0.87563790     1.90100
O1396       O  0.00169083  0.58116640  0.79840645    -0.75500
O1397       O  0.04820845  0.54078281  0.89092282    -0.75400
O1398       O  0.04725079  0.55638886  0.79032553    -0.81000
O1399       O  0.08675030  0.56353648  0.89414933    -0.79200
O1400       O  0.04114960  0.59417293  0.86341080    -1.15400
O1401       O  0.07294304  0.61216153  0.93673877    -0.74600
C1402       C  0.05165916  0.61600652  0.96575246     0.96200
C1403       C  0.00503418  0.60424933  0.77513748     0.92600
Al1404     Al  0.02582176  0.56298823  0.84824405     1.55600
O1405       O  0.04671584  0.65353499  0.87422844    -0.79200
C1406       C  0.07365880  0.54150209  0.89861260     0.96700
C1407       C  0.48154319  0.57917277  0.90184488     0.91600
O1408       O  0.48447138  0.60340991  0.88512357    -0.84500
O1409       O  0.72786136  0.36977123  0.04575329    -0.84000
C1410       C  0.68707964  0.31737263  0.22063938     0.95400
O1411       O  0.67308739  0.33444448  0.19539212    -0.73100
O1412       O  0.68098877  0.38090731  0.16509954    -0.76700
Al1413     Al  0.67879883  0.34805034  0.12785837     1.49000
C1414       C  0.68649849  0.40261608  0.14280220     0.90700
O1415       O  0.74294174  0.37561135  0.19203800    -0.82900
O1416       O  0.75293920  0.31488918  0.08573579    -0.76400
Al1417     Al  0.73613192  0.37341775  0.11710885     1.90100
O1418       O  0.75378526  0.33114814  0.19432810    -0.75500
O1419       O  0.70726031  0.29076425  0.10182658    -0.75400
O1420       O  0.70822598  0.30637033  0.20242276    -0.81000
O1421       O  0.66871912  0.31351895  0.09860250    -0.79200
O1422       O  0.71432124  0.34415558  0.12933516    -1.15400
O1423       O  0.68252563  0.36214697  0.05601123    -0.74600
C1424       C  0.70380889  0.36599974  0.02699773     0.96200
C1425       C  0.75043864  0.35422909  0.21760104     0.92600
Al1426     Al  0.72965025  0.31297039  0.14449711     1.55600
O1427       O  0.70875610  0.40351796  0.11852931    -0.79200
C1428       C  0.68180905  0.29148337  0.09414390     0.96700
C1429       C  0.77392443  0.32915581  0.09088405     0.91600
O1430       O  0.77099796  0.35339241  0.10761053    -0.84500
O1431       O  0.76498680  0.35448674  0.88540749    -0.84000
C1432       C  0.67900078  0.32290394  0.77417864     0.95400
O1433       O  0.69728797  0.30763376  0.79425649    -0.73100
O1434       O  0.74564369  0.32849690  0.79496635    -0.76700
Al1435     Al  0.72305167  0.31287075  0.84838515     1.49000
C1436       C  0.74736418  0.35192326  0.77338278     0.90700
O1437       O  0.70548720  0.40422056  0.85733950    -0.82900
O1438       O  0.68069323  0.35279893  0.94865782    -0.76400
Al1439     Al  0.73084058  0.37414134  0.87098625     1.90100
O1440       O  0.66762805  0.38241181  0.86556005    -0.75500
O1441       O  0.66373638  0.30876652  0.88668339    -0.75400
O1442       O  0.66666711  0.34120281  0.80097619    -0.81000
O1443       O  0.70366163  0.29153449  0.89837001    -0.79200
O1444       O  0.70888628  0.34482198  0.86448761    -1.15400
O1445       O  0.74997370  0.31367219  0.90066757    -0.74600
C1446       C  0.76957157  0.32992653  0.89811404     0.96200
C1447       C  0.67988437  0.40415982  0.85843730     0.92600
Al1448     Al  0.67312993  0.34641627  0.87519211     1.55600
O1449       O  0.73988583  0.37360961  0.79725011    -0.79200
C1450       C  0.67825883  0.28856100  0.89761329     0.96700
C1451       C  0.70143842  0.36487570  0.96988746     0.91600
O1452       O  0.72170397  0.37461622  0.94368666    -0.84500
O1453       O  0.87866086  0.26869361  0.04572176    -0.84000
C1454       C  0.82628362  0.30948043  0.22062383     0.95400
O1455       O  0.84336493  0.32346893  0.19539208    -0.73100
O1456       O  0.88981928  0.31556084  0.16507383    -0.76700
Al1457     Al  0.85696061  0.31776206  0.12784962     1.49000
C1458       C  0.91152115  0.31003866  0.14277313     0.90700
O1459       O  0.88450146  0.25359533  0.19200012    -0.82900
O1460       O  0.82378666  0.24361676  0.08570105    -0.76400
Al1461     Al  0.88230731  0.26041223  0.11707305     1.90100
O1462       O  0.84004179  0.24276711  0.19429874    -0.75500
O1463       O  0.79968166  0.28930488  0.10178317    -0.75400
O1464       O  0.81527402  0.28833959  0.20238812    -0.81000
O1465       O  0.82242984  0.32785521  0.09861326    -0.79200
O1466       O  0.85305760  0.28223407  0.12930993    -1.15400
O1467       O  0.87104757  0.31403910  0.05599832    -0.74600
C1468       C  0.87489630  0.29275382  0.02697581     0.96200
C1469       C  0.86312199  0.24610399  0.21756675     0.92600
Al1470     Al  0.82187366  0.26690926  0.14446316     1.55600
O1471       O  0.91241083  0.28777889  0.11849463    -0.79200
C1472       C  0.80039879  0.31476281  0.09413184     0.96700
C1473       C  0.83804462  0.22262486  0.09084910     0.91600
O1474       O  0.86227861  0.22554689  0.10756963    -0.84500
O1475       O  0.86338263  0.23157522  0.88539300    -0.84000
C1476       C  0.83179810  0.31756598  0.77417213     0.95400
O1477       O  0.81653604  0.29927222  0.79425090    -0.73100
O1478       O  0.83739648  0.25090879  0.79496790    -0.76700
Al1479     Al  0.82177460  0.27351352  0.84838521     1.49000
C1480       C  0.86081635  0.24919535  0.77337031     0.90700
O1481       O  0.91311062  0.29107445  0.85733002    -0.82900
O1482       O  0.86170585  0.31588313  0.94864055    -0.76400
Al1483     Al  0.88303421  0.26572355  0.87097017     1.90100
O1484       O  0.89131145  0.32894603  0.86552276    -0.75500
O1485       O  0.81767038  0.33284501  0.88667723    -0.75400
O1486       O  0.85009457  0.32990553  0.80096111    -0.81000
O1487       O  0.80044023  0.29291317  0.89835963    -0.79200
O1488       O  0.85372090  0.28768364  0.86447552    -1.15400
O1489       O  0.82258184  0.24659898  0.90068568    -0.74600
C1490       C  0.83882880  0.22699514  0.89812215     0.96200
C1491       C  0.91305454  0.31668163  0.85841246     0.92600
Al1492     Al  0.85531713  0.32344639  0.87517465     1.55600
O1493       O  0.88249974  0.25667911  0.79723290    -0.79200
C1494       C  0.79746605  0.31832151  0.89759837     0.96700
C1495       C  0.87377598  0.29513032  0.96986958     0.91600
O1496       O  0.88351130  0.27486043  0.94366614    -0.84500
O1497       O  0.77760315  0.11786709  0.04571800    -0.84000
C1498       C  0.81838853  0.17025477  0.22061208     0.95400
O1499       O  0.83238260  0.15318823  0.19535486    -0.73100
O1500       O  0.82447975  0.10672687  0.16506202    -0.76700
Al1501     Al  0.82666653  0.13958390  0.12782382     1.49000
C1502       C  0.81897041  0.08501806  0.14276292     0.90700
O1503       O  0.76252416  0.11201704  0.19200631    -0.82900
O1504       O  0.75252216  0.17274513  0.08571766    -0.76400
Al1505     Al  0.76933372  0.11421496  0.11707460     1.90100
O1506       O  0.75167998  0.15647995  0.19430446    -0.75500
O1507       O  0.79820111  0.19687023  0.10181204    -0.75400
O1508       O  0.79724010  0.18125588  0.20240322    -0.81000
O1509       O  0.83674137  0.17411509  0.09856549    -0.79200
O1510       O  0.79114347  0.14347708  0.12930631    -1.15400
O1511       O  0.82293889  0.12548859  0.05598132    -0.74600
C1512       C  0.80165535  0.12164142  0.02696540     0.96200
C1513       C  0.75502436  0.13339765  0.21757413     0.92600
Al1514     Al  0.77581356  0.17466052  0.14447759     1.55600
O1515       O  0.79671240  0.08411560  0.11848904    -0.79200
C1516       C  0.82365010  0.19614979  0.09411460     0.96700
C1517       C  0.73153786  0.15847819  0.09086642     0.91600
O1518       O  0.73446612  0.13423979  0.10758221    -0.84500
O1519       O  0.74048973  0.13317907  0.88537400    -0.84000
C1520       C  0.82647855  0.16476227  0.77417359     0.95400
O1521       O  0.80819514  0.18003580  0.79425233    -0.73100
O1522       O  0.75983669  0.15917774  0.79494394    -0.76700
Al1523     Al  0.78242830  0.17479675  0.84837396     1.49000
C1524       C  0.75811462  0.13575252  0.77335563     0.90700
O1525       O  0.79998288  0.08344452  0.85729185    -0.82900
O1526       O  0.82477479  0.13485727  0.94864184    -0.76400
Al1527     Al  0.77463241  0.11352382  0.87094893     1.90100
O1528       O  0.83784271  0.10524907  0.86554487    -0.75500
O1529       O  0.84174290  0.17889376  0.88668017    -0.75400
O1530       O  0.83880967  0.14646065  0.80096679    -0.81000
O1531       O  0.80181938  0.19612689  0.89837149    -0.79200
O1532       O  0.79658912  0.14284259  0.86446765    -1.15400
O1533       O  0.75550413  0.17399275  0.90064925    -0.74600
C1534       C  0.73590578  0.15773786  0.89809177     0.96200
C1535       C  0.82558529  0.08350329  0.85840535     0.92600
Al1536     Al  0.83234410  0.14124417  0.87518128     1.55600
O1537       O  0.76559043  0.11406425  0.79721671    -0.79200
C1538       C  0.82722339  0.19909899  0.89760857     0.96700
C1539       C  0.80402819  0.12277577  0.96985963     0.91600
O1540       O  0.78376495  0.11303860  0.94364746    -0.84500
O1541       O  0.62680151  0.21894400  0.04573909    -0.84000
C1542       C  0.67917616  0.17814225  0.22062453     0.95400
O1543       O  0.66209854  0.16415349  0.19538579    -0.73100
O1544       O  0.61564623  0.17206383  0.16507193    -0.76700
Al1545     Al  0.64850274  0.16986693  0.12784447     1.49000
C1546       C  0.59394141  0.17758694  0.14277849     0.90700
O1547       O  0.62095966  0.23402606  0.19202609    -0.82900
O1548       O  0.68167370  0.24401681  0.08573079    -0.76400
Al1549     Al  0.62315370  0.22721690  0.11709481     1.90100
O1550       O  0.66541878  0.24485638  0.19432794    -0.75500
O1551       O  0.70578065  0.19832736  0.10179799    -0.75400
O1552       O  0.69018596  0.19928487  0.20239916    -0.81000
O1553       O  0.68303267  0.15977735  0.09860508    -0.79200
O1554       O  0.65240425  0.20539478  0.12932256    -1.15400
O1555       O  0.63441696  0.17359788  0.05599087    -0.74600
C1556       C  0.63057135  0.19488772  0.02697900     0.96200
C1557       C  0.64233920  0.24151717  0.21759601     0.92600
Al1558     Al  0.68358731  0.22071912  0.14448377     1.55600
O1559       O  0.59305112  0.19984871  0.11850452    -0.79200
C1560       C  0.70506384  0.17287059  0.09412973     0.96700
C1561       C  0.66741488  0.26500784  0.09088426     0.91600
O1562       O  0.64318199  0.26208449  0.10760638    -0.84500
O1563       O  0.64209916  0.25608737  0.88540873    -0.84000
C1564       C  0.67368180  0.17010624  0.77415341     0.95400
O1565       O  0.68894301  0.18839967  0.79423819    -0.73100
O1566       O  0.66808231  0.23676165  0.79498470    -0.76700
Al1567     Al  0.68370496  0.21415268  0.84838888     1.49000
C1568       C  0.64466194  0.23847224  0.77338694     0.90700
O1569       O  0.59236573  0.19659457  0.85734884    -0.82900
O1570       O  0.64376893  0.17177108  0.94862861    -0.76400
Al1571     Al  0.62244652  0.22194112  0.87098316     1.90100
O1572       O  0.61416821  0.15872229  0.86549222    -0.75500
O1573       O  0.68780785  0.15481870  0.88666188    -0.75400
O1574       O  0.65538592  0.15776529  0.80094009    -0.81000
O1575       O  0.70503898  0.19474932  0.89835526    -0.79200
O1576       O  0.65175894  0.19998080  0.86447574    -1.15400
O1577       O  0.68289925  0.24106183  0.90070097    -0.74600
C1578       C  0.66665212  0.26066736  0.89813591     0.96200
C1579       C  0.59242341  0.17098672  0.85840756     0.92600
Al1580     Al  0.65016150  0.16421725  0.87515642     1.55600
O1581       O  0.62297896  0.23098795  0.79724787    -0.79200
C1582       C  0.70801206  0.16934224  0.89758515     0.96700
C1583       C  0.63170057  0.19252217  0.96986935     0.91600
O1584       O  0.62197276  0.21279933  0.94367632    -0.84500
O1585       O  0.87866771  0.21892959  0.44698564    -0.84000
C1586       C  0.82627842  0.17814015  0.27210111     0.95400
O1587       O  0.84335003  0.16414482  0.29734494    -0.73100
O1588       O  0.88980660  0.17204627  0.32764726    -0.76700
Al1589     Al  0.85695262  0.16985650  0.36488217     1.49000
C1590       C  0.91151303  0.17757081  0.34993162     0.90700
O1591       O  0.88450273  0.23401550  0.30070277    -0.82900
O1592       O  0.82379515  0.24400432  0.40701189    -0.76400
Al1593     Al  0.88231133  0.22720344  0.37563137     1.90100
O1594       O  0.84004658  0.24485538  0.29841328    -0.75500
O1595       O  0.79967810  0.19832353  0.39091972    -0.75400
O1596       O  0.81527651  0.19928724  0.29032362    -0.81000
O1597       O  0.82242417  0.15977346  0.39413195    -0.79200
O1598       O  0.85305726  0.20538517  0.36340468    -1.15400
O1599       O  0.87104491  0.17358506  0.43673196    -0.74600
C1600       C  0.87489498  0.19487350  0.46574488     0.96200
C1601       C  0.86312356  0.24151182  0.27513853     0.92600
Al1602     Al  0.82187638  0.22071517  0.34824725     1.55600
O1603       O  0.91240883  0.19983164  0.37420459    -0.79200
C1604       C  0.80039515  0.17286882  0.39859635     0.96700
C1605       C  0.83805484  0.26499539  0.40186331     0.91600
O1606       O  0.86228701  0.26207201  0.38513532    -0.84500
O1607       O  0.86337232  0.25607328  0.60733050    -0.84000
C1608       C  0.83180002  0.17008168  0.71857100     0.95400
O1609       O  0.81653227  0.18836927  0.69848594    -0.73100
O1610       O  0.83739221  0.23673302  0.69777204    -0.76700
Al1611     Al  0.82176909  0.21413212  0.64435229     1.49000
C1612       C  0.86081435  0.23845181  0.71935858     0.90700
O1613       O  0.91310476  0.19657910  0.63538283    -0.82900
O1614       O  0.86169714  0.17175831  0.54409171    -0.76400
Al1615     Al  0.88302570  0.22192611  0.62174890     1.90100
O1616       O  0.89130523  0.15870648  0.62720727    -0.75500
O1617       O  0.81766421  0.15480392  0.60606498    -0.75400
O1618       O  0.85009649  0.15774368  0.69177986    -0.81000
O1619       O  0.80043974  0.19473688  0.59436780    -0.79200
O1620       O  0.85371488  0.19996422  0.62825490    -1.15400
O1621       O  0.82256947  0.24105041  0.59206019    -0.74600
C1622       C  0.83881669  0.26065365  0.59461935     0.96200
C1623       C  0.91304889  0.17097242  0.63430523     0.92600
Al1624     Al  0.85531201  0.16420046  0.61756205     1.55600
O1625       O  0.88249672  0.23097386  0.69548713    -0.79200
C1626       C  0.79746363  0.16933001  0.59513225     0.96700
C1627       C  0.87376693  0.19250804  0.52285514     0.91600
O1628       O  0.88349789  0.21278403  0.54905108    -0.84500
O1629       O  0.77761332  0.36975864  0.44701982    -0.84000
C1630       C  0.81839115  0.31736699  0.27211267     0.95400
O1631       O  0.83239023  0.33442580  0.29738109    -0.73100
O1632       O  0.82448045  0.38089130  0.32766437    -0.76700
Al1633     Al  0.82667304  0.34803675  0.36491127     1.49000
C1634       C  0.81897181  0.40260148  0.34996151     0.90700
O1635       O  0.76252583  0.37560637  0.30074242    -0.82900
O1636       O  0.75253804  0.31487257  0.40702298    -0.76400
Al1637     Al  0.76934029  0.37340658  0.37566859     1.90100
O1638       O  0.75167594  0.33114627  0.29844265    -0.75500
O1639       O  0.79821240  0.29074676  0.39088740    -0.75400
O1640       O  0.79723582  0.30637473  0.29030864    -0.81000
O1641       O  0.83674898  0.31350776  0.39417906    -0.79200
O1642       O  0.79114987  0.34414389  0.36343006    -1.15400
O1643       O  0.82294818  0.36213833  0.43675419    -0.74600
C1644       C  0.80166704  0.36599032  0.46577147     0.96200
C1645       C  0.75502540  0.35422729  0.27517355     0.92600
Al1646     Al  0.77581832  0.31296210  0.34824883     1.55600
O1647       O  0.79671627  0.40350399  0.37424247    -0.79200
C1648       C  0.82366044  0.29146970  0.39860368     0.96700
C1649       C  0.73155247  0.32914045  0.40188882     0.91600
O1650       O  0.73447738  0.35337971  0.38517488    -0.84500
O1651       O  0.74049195  0.35449182  0.60735418    -0.84000
C1652       C  0.82646992  0.32289039  0.71857741     0.95400
O1653       O  0.80817501  0.30762690  0.69850439    -0.73100
O1654       O  0.75982277  0.32849769  0.69778497    -0.76700
Al1655     Al  0.78241697  0.31286721  0.64437147     1.49000
C1656       C  0.75810995  0.35192321  0.71937572     0.90700
O1657       O  0.79999797  0.40421389  0.63542383    -0.82900
O1658       O  0.82478380  0.35279063  0.54410714    -0.76400
Al1659     Al  0.77464047  0.37413934  0.62177844     1.90100
O1660       O  0.83785383  0.38239846  0.62721168    -0.75500
O1661       O  0.84173401  0.30875394  0.60607054    -0.75400
O1662       O  0.83880785  0.34118574  0.69178130    -0.81000
O1663       O  0.80180708  0.29152285  0.59439661    -0.79200
O1664       O  0.79658948  0.34481563  0.62827406    -1.15400
O1665       O  0.75550061  0.31367654  0.59207906    -0.74600
C1666       C  0.73590460  0.32993334  0.59463527     0.96200
C1667       C  0.82560003  0.40414828  0.63432955     0.92600
Al1668     Al  0.83234596  0.34640413  0.61757028     1.55600
O1669       O  0.76559583  0.37360846  0.69551444    -0.79200
C1670       C  0.82721109  0.28854972  0.59514740     0.96700
C1671       C  0.80403998  0.36486923  0.52287913     0.91600
O1672       O  0.78377604  0.37461313  0.54908057    -0.84500
O1673       O  0.62680757  0.26870042  0.44702043    -0.84000
C1674       C  0.67919120  0.30948197  0.27212778     0.95400
O1675       O  0.66212648  0.32347909  0.29737869    -0.73100
O1676       O  0.61566676  0.31557944  0.32767646    -0.76700
Al1677     Al  0.64852156  0.31776672  0.36491159     1.49000
C1678       C  0.59396041  0.31005705  0.34996459     0.90700
O1679       O  0.62096244  0.25360614  0.30073657    -0.82900
O1680       O  0.68167817  0.24361422  0.40703302    -0.76400
Al1681     Al  0.62315929  0.26042172  0.37566593     1.90100
O1682       O  0.66541679  0.24276155  0.29844135    -0.75500
O1683       O  0.70579691  0.28929477  0.39093042    -0.75400
O1684       O  0.69018859  0.28832929  0.29033838    -0.81000
O1685       O  0.68304899  0.32784381  0.39417216    -0.79200
O1686       O  0.65241428  0.28223681  0.36343291    -1.15400
O1687       O  0.63442645  0.31404419  0.43675166    -0.74600
C1688       C  0.63057701  0.29275935  0.46576986     0.96200
C1689       C  0.64233927  0.24610739  0.27516967     0.92600
Al1690     Al  0.68359282  0.26690311  0.34826698     1.55600
O1691       O  0.59306446  0.28779647  0.37423823    -0.79200
C1692       C  0.70507931  0.31474882  0.39862592     0.96700
C1693       C  0.66741524  0.22262557  0.40188655     0.91600
O1694       O  0.64318145  0.22555123  0.38516983    -0.84500
O1695       O  0.64210225  0.23158562  0.60735200    -0.84000
C1696       C  0.67367717  0.31758317  0.71857852     0.95400
O1697       O  0.68894327  0.29929366  0.69849601    -0.73100
O1698       O  0.66808523  0.25092887  0.69778637    -0.76700
Al1699     Al  0.68370553  0.27352941  0.64436488     1.49000
C1700       C  0.64466358  0.24921269  0.71937645     0.90700
O1701       O  0.59237041  0.29107863  0.63541367    -0.82900
O1702       O  0.64377209  0.31588978  0.54410306    -0.76400
Al1703     Al  0.62244738  0.26573146  0.62177447     1.90100
O1704       O  0.61416734  0.32895153  0.62721838    -0.75500
O1705       O  0.68780702  0.33285730  0.60606905    -0.75400
O1706       O  0.65537970  0.32992022  0.69178608    -0.81000
O1707       O  0.70503401  0.29292504  0.59438032    -0.79200
O1708       O  0.65175859  0.28769493  0.62827098    -1.15400
O1709       O  0.68290345  0.24661096  0.59207175    -0.74600
C1710       C  0.66665448  0.22700651  0.59462588     0.96200
C1711       C  0.59242536  0.31668498  0.63433026     0.92600
Al1712     Al  0.65016006  0.32345724  0.61756983     1.55600
O1713       O  0.62298092  0.25668985  0.69550867    -0.79200
C1714       C  0.70800949  0.31833309  0.59514524     0.96700
C1715       C  0.63170217  0.29513608  0.52287763     0.91600
O1716       O  0.62196927  0.27486584  0.54907983    -0.84500
O1717       O  0.72785713  0.11786937  0.44700201    -0.84000
C1718       C  0.68706595  0.17025558  0.27211395     0.95400
O1719       O  0.67307454  0.15318586  0.29736578    -0.73100
O1720       O  0.68098536  0.10672657  0.32765573    -0.76700
Al1721     Al  0.67879193  0.13958266  0.36489698     1.49000
C1722       C  0.68649442  0.08501901  0.34995828     0.90700
O1723       O  0.74293453  0.11201792  0.30071448    -0.82900
O1724       O  0.75293615  0.17274549  0.40700456    -0.76400
Al1725     Al  0.73612623  0.11421653  0.37564614     1.90100
O1726       O  0.75377367  0.15648228  0.29841339    -0.75500
O1727       O  0.70725631  0.19686696  0.39092473    -0.75400
O1728       O  0.70821302  0.18125899  0.29032710    -0.81000
O1729       O  0.66871396  0.17411450  0.39415542    -0.79200
O1730       O  0.71431458  0.14347757  0.36341612    -1.15400
O1731       O  0.68252079  0.12548865  0.43674160    -0.74600
C1732       C  0.70380549  0.12164305  0.46575602     0.96200
C1733       C  0.75043169  0.13339865  0.27514662     0.92600
Al1734     Al  0.72964237  0.17466135  0.34824855     1.55600
O1735       O  0.70875121  0.08411765  0.37423473    -0.79200
C1736       C  0.68180684  0.19614769  0.39861616     0.96700
C1737       C  0.77391997  0.15847773  0.40185605     0.91600
O1738       O  0.77099190  0.13424049  0.38513587    -0.84500
O1739       O  0.76498220  0.13317351  0.60733442    -0.84000
C1740       C  0.67900916  0.16478125  0.71855646     0.95400
O1741       O  0.69730271  0.18004408  0.69848045    -0.73100
O1742       O  0.74565605  0.15917605  0.69775637    -0.76700
Al1743     Al  0.72305837  0.17480023  0.64434202     1.49000
C1744       C  0.74736852  0.13575214  0.71935052     0.90700
O1745       O  0.70548348  0.08345111  0.63541909    -0.82900
O1746       O  0.68069142  0.13486078  0.54408776    -0.76400
Al1747     Al  0.73083726  0.11352563  0.62176428     1.90100
O1748       O  0.66762629  0.10526451  0.62720809    -0.75500
O1749       O  0.66373929  0.17890539  0.60604325    -0.75400
O1750       O  0.66667118  0.14648375  0.69176260    -0.81000
O1751       O  0.70366458  0.19613817  0.59436431    -0.79200
O1752       O  0.70888705  0.14284917  0.62825297    -1.15400
O1753       O  0.74997224  0.17398721  0.59204673    -0.74600
C1754       C  0.76956938  0.15772911  0.59461201     0.96200
C1755       C  0.67988069  0.08351542  0.63433081     0.92600
Al1756     Al  0.67313085  0.14125710  0.61755152     1.55600
O1757       O  0.73988238  0.11406500  0.69549568    -0.79200
C1758       C  0.67826027  0.19911170  0.59512600     0.96700
C1759       C  0.70143579  0.12277839  0.52286427     0.91600
O1760       O  0.72170098  0.11304214  0.54906863    -0.84500
O1761       O  0.97786190  0.11977223  0.54570893    -0.84000
C1762       C  0.93707520  0.06738789  0.72060643     0.95400
O1763       O  0.92307936  0.08444822  0.69533889    -0.73100
O1764       O  0.93098926  0.13091046  0.66505549    -0.76700
Al1765     Al  0.92879918  0.09805518  0.62781039     1.49000
C1766       C  0.93649869  0.15262011  0.64275786     0.90700
O1767       O  0.99294307  0.12562683  0.69199467    -0.82900
O1768       O  0.50294193  0.06489296  0.58571492    -0.76400
Al1769     Al  0.98613205  0.12342544  0.61706381     1.90100
O1770       O  0.00378957  0.08116533  0.69429714    -0.75500
O1771       O  0.95726484  0.04076818  0.60182148    -0.75400
O1772       O  0.95822930  0.05639146  0.70240702    -0.81000
O1773       O  0.91872591  0.06352534  0.59854225    -0.79200
O1774       O  0.96432259  0.09416302  0.62929755    -1.15400
O1775       O  0.93252639  0.11215283  0.55597014    -0.74600
C1776       C  0.95380846  0.11599920  0.52695458     0.96200
C1777       C  0.00044337  0.10424783  0.71756456     0.92600
Al1778     Al  0.97965346  0.06298144  0.64447759     1.55600
O1779       O  0.95875419  0.15352273  0.61848046    -0.79200
C1780       C  0.93181725  0.04148914  0.59410569     0.96700
C1781       C  0.52392568  0.07916205  0.59085789     0.91600
O1782       O  0.52099777  0.10340098  0.60757027    -0.84500
O1783       O  0.51497958  0.10447545  0.38538004    -0.84000
C1784       C  0.92900703  0.07286162  0.27416316     0.95400
O1785       O  0.94730184  0.05759935  0.29423903    -0.73100
O1786       O  0.99565466  0.07846934  0.29496238    -0.76700
Al1787     Al  0.97305752  0.06284497  0.34837665     1.49000
C1788       C  0.99736621  0.10189298  0.27336516     0.90700
O1789       O  0.95547816  0.15419345  0.35729166    -0.82900
O1790       O  0.93069258  0.10278193  0.44862703    -0.76400
Al1791     Al  0.98083375  0.12412050  0.37094796     1.90100
O1792       O  0.91762235  0.13237862  0.36550992    -0.75500
O1793       O  0.91373868  0.05873662  0.38667320    -0.75400
O1794       O  0.91666859  0.09115843  0.30095553    -0.81000
O1795       O  0.95366435  0.04150501  0.39835301    -0.79200
O1796       O  0.95888497  0.09479541  0.36446232    -1.15400
O1797       O  0.49997123  0.06366165  0.40067420    -0.74600
C1798       C  0.51956694  0.07991978  0.39810955     0.96200
C1799       C  0.92987575  0.15412746  0.35838598     0.92600
Al1800     Al  0.92312931  0.09638562  0.37516494     1.55600
O1801       O  0.98987752  0.12358004  0.29721664    -0.79200
C1802       C  0.92825983  0.03853130  0.39759069     0.96700
C1803       C  0.95143608  0.11486536  0.46984920     0.91600
O1804       O  0.97169999  0.12460475  0.44364263    -0.84500
O1805       O  0.52761917  0.36788111  0.54573958    -0.84000
C1806       C  0.56839973  0.42027648  0.72063661     0.95400
O1807       O  0.58239343  0.40320829  0.69538458    -0.73100
O1808       O  0.57448690  0.35674519  0.66509408    -0.76700
Al1809     Al  0.57668020  0.38960099  0.62785138     1.49000
C1810       C  0.56897648  0.33503608  0.64279297     0.90700
O1811       O  0.51253497  0.36203716  0.69201947    -0.82900
O1812       O  0.50254175  0.42276300  0.58572636    -0.76400
Al1813     Al  0.51934669  0.36423348  0.61709214     1.90100
O1814       O  0.50169135  0.40649982  0.69431580    -0.75500
O1815       O  0.54821902  0.44688706  0.60183302    -0.75400
O1816       O  0.54725069  0.43127613  0.70242422    -0.81000
O1817       O  0.58675958  0.42413171  0.59859423    -0.79200
O1818       O  0.54115760  0.39349534  0.62932591    -1.15400
O1819       O  0.57295473  0.37550316  0.55600375    -0.74600
C1820       C  0.55167182  0.37165147  0.52698739     0.96200
C1821       C  0.50503755  0.38341792  0.71758628     0.92600
Al1822     Al  0.52582813  0.42467928  0.64449328     1.55600
O1823       O  0.54672100  0.33413480  0.61851538    -0.79200
C1824       C  0.57366778  0.44616752  0.59414265     0.96700
C1825       C  0.98155687  0.40849614  0.59086859     0.91600
O1826       O  0.98448237  0.38425894  0.60758948    -0.84500
O1827       O  0.99048808  0.38315058  0.38540748    -0.84000
C1828       C  0.57645650  0.41476203  0.27417102     0.95400
O1829       O  0.55815700  0.43001990  0.29424126    -0.73100
O1830       O  0.50980644  0.40914599  0.29498188    -0.76700
Al1831     Al  0.53240580  0.42477853  0.34838616     1.49000
C1832       C  0.50809811  0.38572170  0.27338702     0.90700
O1833       O  0.54999531  0.33343317  0.35733542    -0.82900
O1834       O  0.57478429  0.38485483  0.44864586    -0.76400
Al1835     Al  0.52463698  0.36350593  0.37098114     1.90100
O1836       O  0.58785077  0.35525195  0.36552817    -0.75500
O1837       O  0.59172600  0.42889534  0.38668304    -0.75400
O1838       O  0.58879822  0.39646896  0.30096771    -0.81000
O1839       O  0.55179881  0.44612659  0.39835039    -0.79200
O1840       O  0.54658336  0.39283155  0.36448158    -1.15400
O1841       O  0.00549611  0.42396557  0.40068957    -0.74600
C1842       C  0.98589987  0.40770848  0.39812683     0.96200
C1843       C  0.57559767  0.33350066  0.35841684     0.92600
Al1844     Al  0.58234057  0.39124567  0.37517971     1.55600
O1845       O  0.51558903  0.36403657  0.29724469    -0.79200
C1846       C  0.57720262  0.44910091  0.39759892     0.96700
C1847       C  0.55404156  0.37277510  0.46987864     0.91600
O1848       O  0.53377608  0.36303262  0.44367813    -0.84500
O1849       O  0.87681150  0.46894159  0.54571420    -0.84000
C1850       C  0.92919685  0.42816469  0.72061634     0.95400
O1851       O  0.91212898  0.41416846  0.69536894    -0.73100
O1852       O  0.86566973  0.42207011  0.66506781    -0.76700
Al1853     Al  0.89852437  0.41987751  0.62783370     1.49000
C1854       C  0.84396351  0.42759230  0.64277897     0.90700
O1855       O  0.87097007  0.48404219  0.69199137    -0.82900
O1856       O  0.93168470  0.49402351  0.58569530    -0.76400
Al1857     Al  0.87316547  0.47722317  0.61706573     1.90100
O1858       O  0.91542535  0.49488421  0.69428729    -0.75500
O1859       O  0.95580152  0.44834363  0.60180945    -0.75400
O1860       O  0.94019532  0.44931583  0.70240035    -0.81000
O1861       O  0.93305203  0.40979505  0.59858009    -0.79200
O1862       O  0.90241957  0.45540679  0.62930410    -1.15400
O1863       O  0.88442956  0.42359815  0.55598940    -0.74600
C1864       C  0.88057990  0.44488227  0.52696881     0.96200
C1865       C  0.89234769  0.49153998  0.71755889     0.92600
Al1866     Al  0.93359942  0.47073898  0.64446727     1.55600
O1867       O  0.84306851  0.44985068  0.61849817    -0.79200
C1868       C  0.95508336  0.42288856  0.59412452     0.96700
C1869       C  0.91742391  0.01501334  0.59083682     0.91600
O1870       O  0.89319001  0.01209101  0.60755481    -0.84500
O1871       O  0.89210013  0.00605485  0.38537536    -0.84000
C1872       C  0.92366723  0.42005116  0.27416437     0.95400
O1873       O  0.93893762  0.43833708  0.29424620    -0.73100
O1874       O  0.91808032  0.48670296  0.29493358    -0.76700
Al1875     Al  0.93370151  0.46410729  0.34836556     1.49000
C1876       C  0.89465753  0.48842446  0.27334881     0.90700
O1877       O  0.84236698  0.44655980  0.35732169    -0.82900
O1878       O  0.89377368  0.42175112  0.44863763    -0.76400
Al1879     Al  0.87244455  0.47190801  0.37095796     1.90100
O1880       O  0.86416220  0.40868689  0.36553487    -0.75500
O1881       O  0.93780388  0.40478258  0.38667101    -0.75400
O1882       O  0.90536969  0.40771560  0.30095607    -0.81000
O1883       O  0.95502893  0.44471593  0.39836046    -0.79200
O1884       O  0.90175462  0.44994381  0.36446431    -1.15400
O1885       O  0.93290310  0.49103196  0.40064653    -0.74600
C1886       C  0.91665478  0.01063490  0.39809408     0.96200
C1887       C  0.84242073  0.42095298  0.35841856     0.92600
Al1888     Al  0.90015605  0.41418144  0.37517294     1.55600
O1889       O  0.87297532  0.48094989  0.29721973    -0.79200
C1890       C  0.95800481  0.41930878  0.39760191     0.96700
C1891       C  0.88170339  0.44250486  0.46986200     0.91600
O1892       O  0.87196904  0.46277416  0.44365535    -0.84500
O1893       O  0.62866821  0.01871220  0.54574470    -0.84000
C1894       C  0.57628590  0.05950658  0.72062345     0.95400
O1895       O  0.59335841  0.07349946  0.69538275    -0.73100
O1896       O  0.63981406  0.06559699  0.66507954    -0.76700
Al1897     Al  0.60695867  0.06778632  0.62784653     1.49000
C1898       C  0.66152017  0.06007318  0.64279118     0.90700
O1899       O  0.63451056  0.00362994  0.69203301    -0.82900
O1900       O  0.57380023  0.49363259  0.58572773    -0.76400
Al1901     Al  0.63231631  0.01043935  0.61710168     1.90100
O1902       O  0.59005362  0.99279188  0.69432683    -0.75500
O1903       O  0.54968481  0.03931645  0.60180245    -0.75400
O1904       O  0.56528161  0.03835993  0.70240204    -0.81000
O1905       O  0.57242945  0.07786787  0.59859609    -0.79200
O1906       O  0.60306292  0.03225750  0.62932674    -1.15400
O1907       O  0.62104832  0.06405720  0.55599873    -0.74600
C1908       C  0.62489546  0.04276846  0.52698694     0.96200
C1909       C  0.61313187  0.99613472  0.71760001     0.92600
Al1910     Al  0.57188231  0.01692787  0.64448475     1.55600
O1911       O  0.66241366  0.03781106  0.61852025    -0.79200
C1912       C  0.55040067  0.06477178  0.59412460     0.96700
C1913       C  0.58806050  0.47264435  0.59088082     0.91600
O1914       O  0.61229351  0.47556913  0.60760703    -0.84500
O1915       O  0.61336285  0.48157527  0.38540473    -0.84000
C1916       C  0.58179750  0.06756898  0.27415857     0.95400
O1917       O  0.56652654  0.04928448  0.29424531    -0.73100
O1918       O  0.58738274  0.00091945  0.29495691    -0.76700
Al1919     Al  0.57176250  0.02351944  0.34837780     1.49000
C1920       C  0.61080526  0.99919870  0.27337525     0.90700
O1921       O  0.66309822  0.04106311  0.35734565    -0.82900
O1922       O  0.61169505  0.06588710  0.44864245    -0.76400
Al1923     Al  0.63301875  0.01571954  0.37098382     1.90100
O1924       O  0.64130337  0.07893784  0.36552804    -0.75500
O1925       O  0.56766256  0.08284680  0.38666522    -0.75400
O1926       O  0.60009514  0.07990527  0.30095225    -0.81000
O1927       O  0.55043778  0.04291449  0.39836617    -0.79200
O1928       O  0.60370976  0.03768400  0.36447727    -1.15400
O1929       O  0.57255988  0.49659966  0.40066646    -0.74600
C1930       C  0.58880834  0.47699543  0.39811540     0.96200
C1931       C  0.66304476  0.06666967  0.35842368     0.92600
Al1932     Al  0.60530997  0.07344741  0.37517164     1.55600
O1933       O  0.63248798  0.00667269  0.29724957    -0.79200
C1934       C  0.54746138  0.06832093  0.39759742     0.96700
C1935       C  0.62376473  0.04513585  0.46987655     0.91600
O1936       O  0.63349415  0.02486076  0.44367951    -0.84500
O1937       O  0.89208958  0.48155759  0.10731299    -0.84000
C1938       C  0.92367918  0.06753623  0.21856844     0.95400
O1939       O  0.93893909  0.04924134  0.19848526    -0.73100
O1940       O  0.91807463  0.00088033  0.19774043    -0.76700
Al1941     Al  0.93369939  0.02348917  0.14433588     1.49000
C1942       C  0.89465497  0.99916937  0.21933572     0.90700
O1943       O  0.84236223  0.04105624  0.13537111    -0.82900
O1944       O  0.89376883  0.06587661  0.04409333    -0.76400
Al1945     Al  0.87244042  0.01570648  0.12173706     1.90100
O1946       O  0.86416661  0.07892735  0.12722485    -0.75500
O1947       O  0.93780741  0.08282318  0.10606434    -0.75400
O1948       O  0.90538444  0.07987880  0.19178050    -0.81000
O1949       O  0.95503605  0.04289122  0.09437259    -0.79200
O1950       O  0.90175467  0.03766405  0.12824671    -1.15400
O1951       O  0.93289046  0.49658016  0.09202320    -0.74600
C1952       C  0.91664336  0.47697618  0.09459139     0.96200
C1953       C  0.84242097  0.06666373  0.13431013     0.92600
Al1954     Al  0.90016034  0.07342823  0.11756561     1.55600
O1955       O  0.87297200  0.00665672  0.19547549    -0.79200
C1956       C  0.95801073  0.06829898  0.09514095     0.96700
C1957       C  0.88169938  0.04512714  0.02285072     0.91600
O1958       O  0.87196844  0.02485052  0.04904157    -0.84500
O1959       O  0.87680437  0.01870579  0.94697985    -0.84000
C1960       C  0.92918299  0.05950368  0.77209459     0.95400
O1961       O  0.91210222  0.07349172  0.79732698    -0.73100
O1962       O  0.86564920  0.06558382  0.82764423    -0.76700
Al1963     Al  0.89850693  0.06778176  0.86487120     1.49000
C1964       C  0.84394574  0.06005925  0.84993746     0.90700
O1965       O  0.87096695  0.00362079  0.80069607    -0.82900
O1966       O  0.93167808  0.49363561  0.90700230    -0.76400
Al1967     Al  0.87315887  0.01043141  0.87562569     1.90100
O1968       O  0.91542643  0.99279136  0.79840220    -0.75500
O1969       O  0.95578459  0.03932334  0.89093308    -0.75400
O1970       O  0.94019375  0.03836281  0.79032856    -0.81000
O1971       O  0.93303796  0.07787405  0.89410761    -0.79200
O1972       O  0.90240910  0.03225420  0.86339925    -1.15400
O1973       O  0.88442189  0.06405181  0.93672739    -0.74600
C1974       C  0.88057356  0.04276232  0.96573938     0.96200
C1975       C  0.89234695  0.99613040  0.77513056     0.92600
Al1976     Al  0.93359307  0.01693040  0.84824591     1.55600
O1977       O  0.84305542  0.03779839  0.87421003    -0.79200
C1978       C  0.95506811  0.06478089  0.89858876     0.96700
C1979       C  0.91742024  0.47264334  0.90184925     0.91600
O1980       O  0.89318786  0.47556515  0.88512124    -0.84500
O1981       O  0.51498035  0.38316176  0.10735155    -0.84000
C1982       C  0.92898717  0.41473372  0.21856052     0.95400
O1983       O  0.94726958  0.43000939  0.19848502    -0.73100
O1984       O  0.99562746  0.40915020  0.19779914    -0.76700
Al1985     Al  0.97303951  0.42477464  0.14436945     1.49000
C1986       C  0.99735243  0.38572306  0.21937949     0.90700
O1987       O  0.95548313  0.33342546  0.13541829    -0.82900
O1988       O  0.93069100  0.38484866  0.04408437    -0.76400
Al1989     Al  0.98083512  0.36350475  0.12176967     1.90100
O1990       O  0.91762256  0.35522895  0.12716594    -0.75500
O1991       O  0.91372711  0.42887682  0.10605914    -0.75400
O1992       O  0.91665603  0.39643370  0.19176222    -0.81000
O1993       O  0.95365253  0.44610791  0.09437314    -0.79200
O1994       O  0.95887853  0.39282242  0.12826200    -1.15400
O1995       O  0.49996708  0.42397725  0.09210044    -0.74600
C1996       C  0.51956397  0.40772220  0.09464755     0.96200
C1997       C  0.92988028  0.33348372  0.13430335     0.92600
Al1998     Al  0.92312253  0.39122589  0.11754603     1.55600
O1999       O  0.98987899  0.36403647  0.19550605    -0.79200
C2000       C  0.92824839  0.44908076  0.09512573     0.96700
C2001       C  0.95143771  0.37277146  0.02286007     0.91600
O2002       O  0.97170036  0.36302878  0.04906789    -0.84500
O2003       O  0.97786523  0.36788101  0.94700331    -0.84000
C2004       C  0.93708719  0.42027543  0.77210282     0.95400
O2005       O  0.92309239  0.40320904  0.79735835    -0.73100
O2006       O  0.93099421  0.35674372  0.82765044    -0.76700
Al2007     Al  0.92880500  0.38960118  0.86489060     1.49000
C2008       C  0.93650395  0.33503464  0.84995070     0.90700
O2009       O  0.99295071  0.36203682  0.80072263    -0.82900
O2010       O  0.50294296  0.42276485  0.90701707    -0.76400
Al2011     Al  0.98613803  0.36423341  0.87564999     1.90100
O2012       O  0.00379756  0.40649875  0.79843083    -0.75500
O2013       O  0.95726568  0.44689048  0.89089933    -0.75400
O2014       O  0.95823832  0.43127324  0.79031343    -0.81000
O2015       O  0.91872721  0.42413218  0.89414956    -0.79200
O2016       O  0.96432789  0.39349535  0.86341572    -1.15400
O2017       O  0.93252997  0.37550298  0.93673491    -0.74600
C2018       C  0.95381201  0.37165029  0.96575303     0.96200
C2019       C  0.00044990  0.38341744  0.77515671     0.92600
Al2020     Al  0.97965840  0.42467929  0.84824699     1.55600
O2021       O  0.95876171  0.33413371  0.87422526    -0.79200
C2022       C  0.93181613  0.44616840  0.89859295     0.96700
C2023       C  0.52392830  0.40849895  0.90187542     0.91600
O2024       O  0.52100295  0.38426016  0.88515558    -0.84500
O2025       O  0.61337884  0.00607342  0.10734608    -0.84000
C2026       C  0.58178778  0.42008931  0.21857814     0.95400
O2027       O  0.56652969  0.43838640  0.19849626    -0.73100
O2028       O  0.58739065  0.48674906  0.19775956    -0.76700
Al2029     Al  0.57176912  0.46413934  0.14435069     1.49000
C2030       C  0.61080878  0.48845703  0.21936378     0.90700
O2031       O  0.66310645  0.44657672  0.13541630    -0.82900
O2032       O  0.61170463  0.42176645  0.04410786    -0.76400
Al2033     Al  0.63302961  0.47192648  0.12177492     1.90100
O2034       O  0.64130494  0.40870567  0.12723942    -0.75500
O2035       O  0.56766482  0.40480491  0.10606647    -0.75400
O2036       O  0.60008386  0.40774799  0.19178956    -0.81000
O2037       O  0.55043295  0.44473564  0.09438378    -0.79200
O2038       O  0.60371527  0.44996716  0.12826835    -1.15400
O2039       O  0.57257951  0.49104811  0.09203828    -0.74600
C2040       C  0.58882779  0.01065277  0.09460584     0.96200
C2041       C  0.66304809  0.42096990  0.13434220     0.92600
Al2042     Al  0.60531105  0.41420471  0.11757586     1.55600
O2043       O  0.63249305  0.48097017  0.19551010    -0.79200
C2044       C  0.54745946  0.41932757  0.09515072     0.96700
C2045       C  0.62377515  0.44251911  0.02287961     0.91600
O2046       O  0.63350841  0.46279012  0.04908202    -0.84500
O2047       O  0.62866606  0.46895485  0.94702471    -0.84000
C2048       C  0.57628894  0.42816577  0.77212404     0.95400
O2049       O  0.59336300  0.41417488  0.79736797    -0.73100
O2050       O  0.63981906  0.42208145  0.82767849    -0.76700
Al2051     Al  0.60696222  0.41988580  0.86490560     1.49000
C2052       C  0.66152393  0.42760364  0.84997487     0.90700
O2053       O  0.63450955  0.48404994  0.80074213    -0.82900
O2054       O  0.57379306  0.49403576  0.90703316    -0.76400
Al2055     Al  0.63231404  0.47723440  0.87567157     1.90100
O2056       O  0.59005181  0.49488361  0.79844042    -0.75500
O2057       O  0.54968363  0.44834821  0.89094415    -0.75400
O2058       O  0.56528390  0.44931245  0.79034737    -0.81000
O2059       O  0.57243324  0.40979940  0.89415090    -0.79200
O2060       O  0.60306263  0.45541462  0.86343479    -1.15400
O2061       O  0.62105237  0.42360961  0.93675207    -0.74600
C2062       C  0.62489955  0.44489501  0.96577356     0.96200
C2063       C  0.61313194  0.49154349  0.77517257     0.92600
Al2064     Al  0.57188069  0.47074227  0.84827168     1.55600
O2065       O  0.66241491  0.44986484  0.87425165    -0.79200
C2066       C  0.55040167  0.42289264  0.89861796     0.96700
C2067       C  0.58805261  0.01502624  0.90188448     0.91600
O2068       O  0.61228687  0.01210232  0.88517067    -0.84500
O2069       O  0.99048877  0.10446209  0.10734163    -0.84000
C2070       C  0.57647910  0.07288527  0.21855411     0.95400
O2071       O  0.55819861  0.05760882  0.19846999    -0.73100
O2072       O  0.50983968  0.07846563  0.19777864    -0.76700
Al2073     Al  0.53242959  0.06284720  0.14434844     1.49000
C2074       C  0.50811415  0.10189181  0.21936212     0.90700
O2075       O  0.54997952  0.15420078  0.13542199    -0.82900
O2076       O  0.57477575  0.10278872  0.04408044    -0.76400
Al2077     Al  0.52463073  0.12411930  0.12176670     1.90100
O2078       O  0.58784018  0.13239735  0.12717891    -0.75500
O2079       O  0.59174296  0.05875341  0.10604714    -0.75400
O2080       O  0.58880916  0.09118757  0.19175983    -0.81000
O2081       O  0.55181904  0.04152080  0.09434780    -0.79200
O2082       O  0.54658867  0.09480206  0.12825296    -1.15400
O2083       O  0.00550306  0.06364792  0.09207564    -0.74600
C2084       C  0.98590428  0.07990324  0.09463075     0.96200
C2085       C  0.57558248  0.15414307  0.13431239     0.92600
Al2086     Al  0.58234399  0.09640220  0.11754351     1.55600
O2087       O  0.51558786  0.12357988  0.19549888    -0.79200
C2088       C  0.57722263  0.03854686  0.09511410     0.96700
C2089       C  0.55402942  0.11486892  0.02285880     0.91600
O2090       O  0.53376398  0.12460353  0.04906845    -0.84500
O2091       O  0.52760681  0.11978205  0.94699539    -0.84000
C2092       C  0.56839657  0.06739364  0.77211114     0.95400
O2093       O  0.58238733  0.08446544  0.79736252    -0.73100
O2094       O  0.57448185  0.13092496  0.82765464    -0.76700
Al2095     Al  0.57667207  0.09806804  0.86489381     1.49000
C2096       C  0.56897290  0.15263339  0.84995278     0.90700
O2097       O  0.51253120  0.12563092  0.80070532    -0.82900
O2098       O  0.50252723  0.06490586  0.90699752    -0.76400
Al2099     Al  0.51933872  0.12343443  0.87563789     1.90100
O2100       O  0.50169087  0.08116647  0.79840636    -0.75500
O2101       O  0.54820838  0.04078284  0.89092276    -0.75400
O2102       O  0.54725086  0.05638893  0.79032538    -0.81000
O2103       O  0.58675028  0.06353641  0.89414939    -0.79200
O2104       O  0.54114965  0.09417299  0.86341083    -1.15400
O2105       O  0.57294315  0.11216150  0.93673876    -0.74600
C2106       C  0.55165897  0.11600647  0.96575253     0.96200
C2107       C  0.50503420  0.10424917  0.77513777     0.92600
Al2108     Al  0.52582174  0.06298825  0.84824402     1.55600
O2109       O  0.54671577  0.15353501  0.87422868    -0.79200
C2110       C  0.57365894  0.04150218  0.89861265     0.96700
C2111       C  0.98154339  0.07917324  0.90184464     0.91600
O2112       O  0.98447126  0.10340977  0.88512369    -0.84500
O2113       O  0.72786144  0.86977129  0.04575340    -0.84000
C2114       C  0.68707996  0.81737252  0.22063912     0.95400
O2115       O  0.67308733  0.83444448  0.19539211    -0.73100
O2116       O  0.68098870  0.88090742  0.16509943    -0.76700
Al2117     Al  0.67879886  0.84805032  0.12785826     1.49000
C2118       C  0.68649896  0.90261576  0.14280192     0.90700
O2119       O  0.74294177  0.87561131  0.19203799    -0.82900
O2120       O  0.75293926  0.81488923  0.08573579    -0.76400
Al2121     Al  0.73613197  0.87341768  0.11710886     1.90100
O2122       O  0.75378522  0.83114812  0.19432808    -0.75500
O2123       O  0.70726030  0.79076419  0.10182676    -0.75400
O2124       O  0.70822586  0.80637039  0.20242305    -0.81000
O2125       O  0.66871912  0.81351866  0.09860243    -0.79200
O2126       O  0.71432124  0.84415553  0.12933514    -1.15400
O2127       O  0.68252576  0.86214694  0.05601107    -0.74600
C2128       C  0.70380877  0.86599966  0.02699770     0.96200
C2129       C  0.75043867  0.85422907  0.21760114     0.92600
Al2130     Al  0.72965022  0.81297044  0.14449714     1.55600
O2131       O  0.70875589  0.90351804  0.11852956    -0.79200
C2132       C  0.68180913  0.79148390  0.09414410     0.96700
C2133       C  0.77392425  0.82915555  0.09088387     0.91600
O2134       O  0.77099800  0.85339243  0.10761053    -0.84500
O2135       O  0.76498679  0.85448676  0.88540738    -0.84000
C2136       C  0.67900056  0.82290420  0.77417859     0.95400
O2137       O  0.69728802  0.80763373  0.79425663    -0.73100
O2138       O  0.74564373  0.82849696  0.79496613    -0.76700
Al2139     Al  0.72305169  0.81287072  0.84838519     1.49000
C2140       C  0.74736397  0.85192321  0.77338342     0.90700
O2141       O  0.70548716  0.90422067  0.85733948    -0.82900
O2142       O  0.68069331  0.85279897  0.94865777    -0.76400
Al2143     Al  0.73084064  0.87414136  0.87098628     1.90100
O2144       O  0.66762806  0.88241192  0.86556003    -0.75500
O2145       O  0.66373649  0.80876644  0.88668339    -0.75400
O2146       O  0.66666718  0.84120283  0.80097607    -0.81000
O2147       O  0.70366182  0.79153452  0.89837014    -0.79200
O2148       O  0.70888640  0.84482195  0.86448762    -1.15400
O2149       O  0.74997362  0.81367214  0.90066755    -0.74600
C2150       C  0.76957184  0.82992662  0.89811407     0.96200
C2151       C  0.67988475  0.90415947  0.85843743     0.92600
Al2152     Al  0.67312994  0.84641631  0.87519210     1.55600
O2153       O  0.73988596  0.87360961  0.79724994    -0.79200
C2154       C  0.67825844  0.78856126  0.89761320     0.96700
C2155       C  0.70143841  0.86487562  0.96988764     0.91600
O2156       O  0.72170408  0.87461626  0.94368659    -0.84500
O2157       O  0.87866083  0.76869362  0.04572180    -0.84000
C2158       C  0.82628390  0.80948093  0.22062410     0.95400
O2159       O  0.84336484  0.82346889  0.19539213    -0.73100
O2160       O  0.88981903  0.81556084  0.16507395    -0.76700
Al2161     Al  0.85696061  0.81776214  0.12784956     1.49000
C2162       C  0.91152149  0.81003872  0.14277281     0.90700
O2163       O  0.88450136  0.75359537  0.19200013    -0.82900
O2164       O  0.82378670  0.74361652  0.08570102    -0.76400
Al2165     Al  0.88230732  0.76041231  0.11707301     1.90100
O2166       O  0.84004164  0.74276714  0.19429860    -0.75500
O2167       O  0.79968165  0.78930496  0.10178317    -0.75400
O2168       O  0.81527393  0.78833945  0.20238788    -0.81000
O2169       O  0.82242986  0.82785528  0.09861324    -0.79200
O2170       O  0.85305755  0.78223419  0.12930991    -1.15400
O2171       O  0.87104755  0.81403914  0.05599833    -0.74600
C2172       C  0.87489631  0.79275394  0.02697576     0.96200
C2173       C  0.86312220  0.74610408  0.21756704     0.92600
Al2174     Al  0.82187362  0.76690930  0.14446326     1.55600
O2175       O  0.91241073  0.78777894  0.11849464    -0.79200
C2176       C  0.80039867  0.81476252  0.09413184     0.96700
C2177       C  0.83804459  0.72262549  0.09084917     0.91600
O2178       O  0.86227854  0.72554686  0.10756959    -0.84500
O2179       O  0.86338250  0.73157515  0.88539320    -0.84000
C2180       C  0.83179789  0.81756565  0.77417253     0.95400
O2181       O  0.81653611  0.79927229  0.79425071    -0.73100
O2182       O  0.83739649  0.75090869  0.79496781    -0.76700
Al2183     Al  0.82177470  0.77351350  0.84838517     1.49000
C2184       C  0.86081666  0.74919560  0.77337098     0.90700
O2185       O  0.91311056  0.79107439  0.85732997    -0.82900
O2186       O  0.86170588  0.81588317  0.94864065    -0.76400
Al2187     Al  0.88303425  0.76572361  0.87097027     1.90100
O2188       O  0.89131140  0.82894597  0.86552268    -0.75500
O2189       O  0.81767009  0.83284487  0.88667742    -0.75400
O2190       O  0.85009460  0.82990552  0.80096109    -0.81000
O2191       O  0.80044013  0.79291313  0.89835961    -0.79200
O2192       O  0.85372089  0.78768367  0.86447556    -1.15400
O2193       O  0.82258190  0.74659893  0.90068564    -0.74600
C2194       C  0.83882898  0.72699536  0.89812201     0.96200
C2195       C  0.91305422  0.81668161  0.85841254     0.92600
Al2196     Al  0.85531710  0.82344639  0.87517466     1.55600
O2197       O  0.88249962  0.75667904  0.79723262    -0.79200
C2198       C  0.79746649  0.81832146  0.89759815     0.96700
C2199       C  0.87377596  0.79513041  0.96986939     0.91600
O2200       O  0.88351127  0.77486044  0.94366620    -0.84500
O2201       O  0.77760308  0.61786713  0.04571807    -0.84000
C2202       C  0.81838853  0.67025464  0.22061184     0.95400
O2203       O  0.83238262  0.65318830  0.19535500    -0.73100
O2204       O  0.82447980  0.60672684  0.16506198    -0.76700
Al2205     Al  0.82666654  0.63958398  0.12782381     1.49000
C2206       C  0.81897037  0.58501800  0.14276279     0.90700
O2207       O  0.76252411  0.61201713  0.19200629    -0.82900
O2208       O  0.75252211  0.67274516  0.08571759    -0.76400
Al2209     Al  0.76933373  0.61421495  0.11707451     1.90100
O2210       O  0.75167998  0.65648011  0.19430417    -0.75500
O2211       O  0.79820106  0.69687014  0.10181211    -0.75400
O2212       O  0.79724010  0.68125584  0.20240331    -0.81000
O2213       O  0.83674142  0.67411481  0.09856568    -0.79200
O2214       O  0.79114349  0.64347704  0.12930633    -1.15400
O2215       O  0.82293881  0.62548861  0.05598118    -0.74600
C2216       C  0.80165581  0.62164153  0.02696527     0.96200
C2217       C  0.75502439  0.63339720  0.21757435     0.92600
Al2218     Al  0.77581355  0.67466052  0.14447754     1.55600
O2219       O  0.79671245  0.58411559  0.11848894    -0.79200
C2220       C  0.82365015  0.69615042  0.09411443     0.96700
C2221       C  0.73153791  0.65847805  0.09086633     0.91600
O2222       O  0.73446603  0.63423976  0.10758205    -0.84500
O2223       O  0.74048954  0.63317934  0.88537424    -0.84000
C2224       C  0.82647877  0.66476219  0.77417312     0.95400
O2225       O  0.80819510  0.68003586  0.79425257    -0.73100
O2226       O  0.75983677  0.65917777  0.79494389    -0.76700
Al2227     Al  0.78242833  0.67479675  0.84837388     1.49000
C2228       C  0.75811475  0.63575226  0.77335581     0.90700
O2229       O  0.79998282  0.58344449  0.85729174    -0.82900
O2230       O  0.82477473  0.63485725  0.94864185    -0.76400
Al2231     Al  0.77463248  0.61352377  0.87094893     1.90100
O2232       O  0.83784273  0.60524893  0.86554488    -0.75500
O2233       O  0.84174296  0.67889351  0.88668001    -0.75400
O2234       O  0.83880965  0.64646057  0.80096688    -0.81000
O2235       O  0.80181915  0.69612665  0.89837154    -0.79200
O2236       O  0.79658916  0.64284253  0.86446765    -1.15400
O2237       O  0.75550419  0.67399277  0.90064922    -0.74600
C2238       C  0.73590601  0.65773724  0.89809136     0.96200
C2239       C  0.82558556  0.58350330  0.85840542     0.92600
Al2240     Al  0.83234421  0.64124421  0.87518123     1.55600
O2241       O  0.76559043  0.61406426  0.79721666    -0.79200
C2242       C  0.82722382  0.69909965  0.89760885     0.96700
C2243       C  0.80402859  0.62277597  0.96985984     0.91600
O2244       O  0.78376490  0.61303850  0.94364730    -0.84500
O2245       O  0.62680153  0.71894412  0.04573924    -0.84000
C2246       C  0.67917637  0.67814239  0.22062491     0.95400
O2247       O  0.66209844  0.66415338  0.19538568    -0.73100
O2248       O  0.61564606  0.67206374  0.16507197    -0.76700
Al2249     Al  0.64850274  0.66986685  0.12784449     1.49000
C2250       C  0.59394199  0.67758784  0.14277825     0.90700
O2251       O  0.62095967  0.73402608  0.19202606    -0.82900
O2252       O  0.68167375  0.74401672  0.08573072    -0.76400
Al2253     Al  0.62315373  0.72721693  0.11709481     1.90100
O2254       O  0.66541887  0.74485629  0.19432787    -0.75500
O2255       O  0.70578076  0.69832728  0.10179782    -0.75400
O2256       O  0.69018593  0.69928481  0.20239903    -0.81000
O2257       O  0.68303290  0.65977730  0.09860505    -0.79200
O2258       O  0.65240433  0.70539472  0.12932251    -1.15400
O2259       O  0.63441696  0.67359790  0.05599089    -0.74600
C2260       C  0.63057139  0.69488755  0.02697884     0.96200
C2261       C  0.64233917  0.74151709  0.21759615     0.92600
Al2262     Al  0.68358736  0.72071914  0.14448376     1.55600
O2263       O  0.59305097  0.69984837  0.11850477    -0.79200
C2264       C  0.70506331  0.67287087  0.09412988     0.96700
C2265       C  0.66741449  0.76500757  0.09088446     0.91600
O2266       O  0.64318217  0.76208454  0.10760628    -0.84500
O2267       O  0.64209929  0.75608745  0.88540888    -0.84000
C2268       C  0.67368174  0.67010630  0.77415355     0.95400
O2269       O  0.68894297  0.68839967  0.79423816    -0.73100
O2270       O  0.66808231  0.73676169  0.79498477    -0.76700
Al2271     Al  0.68370494  0.71415268  0.84838885     1.49000
C2272       C  0.64466166  0.73847220  0.77338728     0.90700
O2273       O  0.59236570  0.69659435  0.85734873    -0.82900
O2274       O  0.64376883  0.67177115  0.94862878    -0.76400
Al2275     Al  0.62244655  0.72194109  0.87098316     1.90100
O2276       O  0.61416826  0.65872228  0.86549227    -0.75500
O2277       O  0.68780784  0.65481875  0.88666183    -0.75400
O2278       O  0.65538588  0.65776529  0.80094002    -0.81000
O2279       O  0.70503880  0.69474967  0.89835515    -0.79200
O2280       O  0.65175895  0.69998081  0.86447573    -1.15400
O2281       O  0.68289928  0.74106185  0.90070101    -0.74600
C2282       C  0.66665165  0.76066729  0.89813574     0.96200
C2283       C  0.59242341  0.67098740  0.85840750     0.92600
Al2284     Al  0.65016150  0.66421725  0.87515639     1.55600
O2285       O  0.62297899  0.73098800  0.79724778    -0.79200
C2286       C  0.70801233  0.66934159  0.89758512     0.96700
C2287       C  0.63170062  0.69252208  0.96986888     0.91600
O2288       O  0.62197272  0.71279932  0.94367644    -0.84500
O2289       O  0.87866765  0.71892937  0.44698578    -0.84000
C2290       C  0.82627848  0.67814002  0.27210113     0.95400
O2291       O  0.84335004  0.66414483  0.29734487    -0.73100
O2292       O  0.88980636  0.67204635  0.32764699    -0.76700
Al2293     Al  0.85695262  0.66985647  0.36488214     1.49000
C2294       C  0.91151364  0.67757038  0.34993174     0.90700
O2295       O  0.88450265  0.73401546  0.30070270    -0.82900
O2296       O  0.82379516  0.74400439  0.40701194    -0.76400
Al2297     Al  0.88231138  0.72720342  0.37563142     1.90100
O2298       O  0.84004649  0.74485537  0.29841337    -0.75500
O2299       O  0.79967828  0.69832381  0.39091958    -0.75400
O2300       O  0.81527647  0.69928725  0.29032370    -0.81000
O2301       O  0.82242443  0.65977351  0.39413189    -0.79200
O2302       O  0.85305730  0.70538510  0.36340468    -1.15400
O2303       O  0.87104489  0.67358482  0.43673175    -0.74600
C2304       C  0.87489510  0.69487396  0.46574500     0.96200
C2305       C  0.86312376  0.74151175  0.27513851     0.92600
Al2306     Al  0.82187638  0.72071510  0.34824724     1.55600
O2307       O  0.91240875  0.69983177  0.37420463    -0.79200
C2308       C  0.80039436  0.67286820  0.39859678     0.96700
C2309       C  0.83805527  0.76499475  0.40186309     0.91600
O2310       O  0.86228681  0.76207214  0.38513547    -0.84500
O2311       O  0.86337221  0.75607320  0.60733046    -0.84000
C2312       C  0.83180002  0.67008148  0.71857122     0.95400
O2313       O  0.81653226  0.68836926  0.69848584    -0.73100
O2314       O  0.83739204  0.73673287  0.69777197    -0.76700
Al2315     Al  0.82176910  0.71413209  0.64435233     1.49000
C2316       C  0.86081467  0.73845172  0.71935860     0.90700
O2317       O  0.91310470  0.69657897  0.63538276    -0.82900
O2318       O  0.86169705  0.67175812  0.54409180    -0.76400
Al2319     Al  0.88302574  0.72192607  0.62174898     1.90100
O2320       O  0.89130526  0.65870632  0.62720732    -0.75500
O2321       O  0.81766455  0.65480369  0.60606511    -0.75400
O2322       O  0.85009643  0.65774358  0.69177980    -0.81000
O2323       O  0.80043990  0.69473685  0.59436791    -0.79200
O2324       O  0.85371490  0.69996419  0.62825492    -1.15400
O2325       O  0.82256941  0.74105023  0.59206023    -0.74600
C2326       C  0.83881696  0.76065373  0.59461952     0.96200
C2327       C  0.91304889  0.67097236  0.63430516     0.92600
Al2328     Al  0.85531193  0.66420044  0.61756197     1.55600
O2329       O  0.88249661  0.73097376  0.69548715    -0.79200
C2330       C  0.79746262  0.66933016  0.59513180     0.96700
C2331       C  0.87376717  0.69250842  0.52285512     0.91600
O2332       O  0.88349778  0.71278386  0.54905100    -0.84500
O2333       O  0.77761346  0.86975861  0.44701992    -0.84000
C2334       C  0.81839169  0.81736721  0.27211243     0.95400
O2335       O  0.83239022  0.83442568  0.29738099    -0.73100
O2336       O  0.82448060  0.88089161  0.32766449    -0.76700
Al2337     Al  0.82667311  0.84803679  0.36491127     1.49000
C2338       C  0.81897113  0.90260078  0.34996153     0.90700
O2339       O  0.76252590  0.87560638  0.30074243    -0.82900
O2340       O  0.75253782  0.81487259  0.40702297    -0.76400
Al2341     Al  0.76934026  0.87340658  0.37566861     1.90100
O2342       O  0.75167600  0.83114622  0.29844267    -0.75500
O2343       O  0.79821249  0.79074676  0.39088740    -0.75400
O2344       O  0.79723566  0.80637469  0.29030888    -0.81000
O2345       O  0.83674909  0.81350763  0.39417903    -0.79200
O2346       O  0.79114998  0.84414401  0.36343009    -1.15400
O2347       O  0.82294831  0.86213833  0.43675421    -0.74600
C2348       C  0.80166675  0.86599025  0.46577131     0.96200
C2349       C  0.75502547  0.85422728  0.27517350     0.92600
Al2350     Al  0.77581838  0.81296211  0.34824881     1.55600
O2351       O  0.79671662  0.90350419  0.37424232    -0.79200
C2352       C  0.82366034  0.79147015  0.39860353     0.96700
C2353       C  0.73155294  0.82914018  0.40188900     0.91600
O2354       O  0.73447742  0.85337981  0.38517477    -0.84500
O2355       O  0.74049194  0.85449186  0.60735414    -0.84000
C2356       C  0.82646958  0.82289018  0.71857718     0.95400
O2357       O  0.80817503  0.80762695  0.69850454    -0.73100
O2358       O  0.75982271  0.82849768  0.69778497    -0.76700
Al2359     Al  0.78241692  0.81286722  0.64437144     1.49000
C2360       C  0.75810997  0.85192323  0.71937539     0.90700
O2361       O  0.79999789  0.90421390  0.63542392    -0.82900
O2362       O  0.82478388  0.85279059  0.54410723    -0.76400
Al2363     Al  0.77464047  0.87413933  0.62177846     1.90100
O2364       O  0.83785372  0.88239870  0.62721178    -0.75500
O2365       O  0.84173393  0.80875392  0.60607049    -0.75400
O2366       O  0.83880788  0.84118577  0.69178123    -0.81000
O2367       O  0.80180680  0.79152298  0.59439666    -0.79200
O2368       O  0.79658947  0.84481570  0.62827410    -1.15400
O2369       O  0.75550055  0.81367659  0.59207903    -0.74600
C2370       C  0.73590456  0.82993337  0.59463524     0.96200
C2371       C  0.82560033  0.90414772  0.63432934     0.92600
Al2372     Al  0.83234595  0.84640406  0.61757026     1.55600
O2373       O  0.76559582  0.87360844  0.69551447    -0.79200
C2374       C  0.82721148  0.78854939  0.59514739     0.96700
C2375       C  0.80403962  0.86486934  0.52287938     0.91600
O2376       O  0.78377616  0.87461312  0.54908040    -0.84500
O2377       O  0.62680755  0.76870024  0.44702043    -0.84000
C2378       C  0.67919141  0.80948173  0.27212776     0.95400
O2379       O  0.66212635  0.82347912  0.29737888    -0.73100
O2380       O  0.61566651  0.81557932  0.32767667    -0.76700
Al2381     Al  0.64852158  0.81776669  0.36491150     1.49000
C2382       C  0.59396072  0.81005754  0.34996371     0.90700
O2383       O  0.62096250  0.75360602  0.30073647    -0.82900
O2384       O  0.68167810  0.74361418  0.40703301    -0.76400
Al2385     Al  0.62315935  0.76042176  0.37566589     1.90100
O2386       O  0.66541681  0.74276160  0.29844129    -0.75500
O2387       O  0.70579698  0.78929495  0.39093057    -0.75400
O2388       O  0.69018851  0.78832934  0.29033840    -0.81000
O2389       O  0.68304891  0.82784388  0.39417221    -0.79200
O2390       O  0.65241428  0.78223683  0.36343292    -1.15400
O2391       O  0.63442643  0.81404399  0.43675184    -0.74600
C2392       C  0.63057701  0.79275970  0.46576964     0.96200
C2393       C  0.64233933  0.74610736  0.27516981     0.92600
Al2394     Al  0.68359281  0.76690310  0.34826703     1.55600
O2395       O  0.59306443  0.78779611  0.37423848    -0.79200
C2396       C  0.70507933  0.81474831  0.39862581     0.96700
C2397       C  0.66741561  0.72262523  0.40188666     0.91600
O2398       O  0.64318135  0.72555125  0.38516974    -0.84500
O2399       O  0.64210190  0.73158571  0.60735219    -0.84000
C2400       C  0.67367690  0.81758342  0.71857850     0.95400
O2401       O  0.68894331  0.79929355  0.69849589    -0.73100
O2402       O  0.66808530  0.75092885  0.69778636    -0.76700
Al2403     Al  0.68370551  0.77352952  0.64436486     1.49000
C2404       C  0.64466334  0.74921289  0.71937603     0.90700
O2405       O  0.59237038  0.79107851  0.63541370    -0.82900
O2406       O  0.64377197  0.81588961  0.54410298    -0.76400
Al2407     Al  0.62244742  0.76573146  0.62177438     1.90100
O2408       O  0.61416718  0.82895145  0.62721842    -0.75500
O2409       O  0.68780697  0.83285733  0.60606905    -0.75400
O2410       O  0.65537976  0.82992015  0.69178618    -0.81000
O2411       O  0.70503396  0.79292510  0.59438030    -0.79200
O2412       O  0.65175847  0.78769497  0.62827103    -1.15400
O2413       O  0.68290315  0.74661062  0.59207179    -0.74600
C2414       C  0.66665557  0.72700708  0.59462553     0.96200
C2415       C  0.59242562  0.81668514  0.63433012     0.92600
Al2416     Al  0.65016004  0.82345728  0.61756981     1.55600
O2417       O  0.62298103  0.75668973  0.69550879    -0.79200
C2418       C  0.70800945  0.81833311  0.59514524     0.96700
C2419       C  0.63170228  0.79513641  0.52287749     0.91600
O2420       O  0.62196923  0.77486565  0.54908002    -0.84500
O2421       O  0.72785749  0.61786935  0.44700173    -0.84000
C2422       C  0.68706596  0.67025575  0.27211358     0.95400
O2423       O  0.67307451  0.65318580  0.29736592    -0.73100
O2424       O  0.68098532  0.60672639  0.32765567    -0.76700
Al2425     Al  0.67879191  0.63958271  0.36489698     1.49000
C2426       C  0.68649499  0.58501928  0.34995829     0.90700
O2427       O  0.74293458  0.61201805  0.30071438    -0.82900
O2428       O  0.75293618  0.67274549  0.40700453    -0.76400
Al2429     Al  0.73612617  0.61421652  0.37564625     1.90100
O2430       O  0.75377364  0.65648244  0.29841344    -0.75500
O2431       O  0.70725647  0.69686677  0.39092455    -0.75400
O2432       O  0.70821297  0.68125895  0.29032718    -0.81000
O2433       O  0.66871392  0.67411413  0.39415543    -0.79200
O2434       O  0.71431461  0.64347764  0.36341636    -1.15400
O2435       O  0.68252105  0.62548854  0.43674184    -0.74600
C2436       C  0.70380442  0.62164322  0.46575593     0.96200
C2437       C  0.75043157  0.63339820  0.27514625     0.92600
Al2438     Al  0.72964238  0.67466139  0.34824856     1.55600
O2439       O  0.70875101  0.58411755  0.37423467    -0.79200
C2440       C  0.68180643  0.69614862  0.39861656     0.96700
C2441       C  0.77392018  0.65847767  0.40185590     0.91600
O2442       O  0.77099189  0.63424051  0.38513586    -0.84500
O2443       O  0.76498224  0.63317345  0.60733440    -0.84000
C2444       C  0.67900910  0.66478121  0.71855639     0.95400
O2445       O  0.69730275  0.68004413  0.69848040    -0.73100
O2446       O  0.74565604  0.65917605  0.69775655    -0.76700
Al2447     Al  0.72305841  0.67480022  0.64434202     1.49000
C2448       C  0.74736830  0.63575195  0.71934991     0.90700
O2449       O  0.70548330  0.58345101  0.63541919    -0.82900
O2450       O  0.68069171  0.63486058  0.54408749    -0.76400
Al2451     Al  0.73083717  0.61352568  0.62176420     1.90100
O2452       O  0.66762623  0.60526443  0.62720807    -0.75500
O2453       O  0.66373909  0.67890499  0.60604350    -0.75400
O2454       O  0.66667123  0.64648379  0.69176269    -0.81000
O2455       O  0.70366425  0.69613813  0.59436426    -0.79200
O2456       O  0.70888700  0.64284922  0.62825289    -1.15400
O2457       O  0.74997248  0.67398704  0.59204679    -0.74600
C2458       C  0.76956895  0.65772942  0.59461200     0.96200
C2459       C  0.67988112  0.58351564  0.63433068     0.92600
Al2460     Al  0.67313085  0.64125717  0.61755157     1.55600
O2461       O  0.73988246  0.61406509  0.69549591    -0.79200
C2462       C  0.67826130  0.69911238  0.59512559     0.96700
C2463       C  0.70143486  0.62277891  0.52286424     0.91600
O2464       O  0.72170120  0.61304197  0.54906892    -0.84500
O2465       O  0.97786177  0.61977215  0.54570868    -0.84000
C2466       C  0.93707532  0.56738776  0.72060662     0.95400
O2467       O  0.92307935  0.58444822  0.69533878    -0.73100
O2468       O  0.93098932  0.63091039  0.66505556    -0.76700
Al2469     Al  0.92879921  0.59805522  0.62781042     1.49000
C2470       C  0.93649875  0.65262021  0.64275773     0.90700
O2471       O  0.99294315  0.62562672  0.69199464    -0.82900
O2472       O  0.50294180  0.56489288  0.58571497    -0.76400
Al2473     Al  0.98613215  0.62342540  0.61706380     1.90100
O2474       O  0.00378968  0.58116520  0.69429710    -0.75500
O2475       O  0.95726478  0.54076802  0.60182143    -0.75400
O2476       O  0.95822933  0.55639146  0.70240703    -0.81000
O2477       O  0.91872601  0.56352509  0.59854220    -0.79200
O2478       O  0.96432261  0.59416304  0.62929756    -1.15400
O2479       O  0.93252627  0.61215279  0.55597029    -0.74600
C2480       C  0.95380931  0.61599925  0.52695463     0.96200
C2481       C  0.00044347  0.60424787  0.71756470     0.92600
Al2482     Al  0.97965345  0.56298143  0.64447762     1.55600
O2483       O  0.95875430  0.65352266  0.61848038    -0.79200
C2484       C  0.93181734  0.54148961  0.59410591     0.96700
C2485       C  0.52392604  0.57916171  0.59085759     0.91600
O2486       O  0.52099764  0.60340108  0.60757039    -0.84500
O2487       O  0.51497968  0.60447541  0.38538014    -0.84000
C2488       C  0.92900703  0.57286150  0.27416293     0.95400
O2489       O  0.94730176  0.55759944  0.29423895    -0.73100
O2490       O  0.99565468  0.57846956  0.29496216    -0.76700
Al2491     Al  0.97305750  0.56284495  0.34837659     1.49000
C2492       C  0.99736621  0.60189249  0.27336515     0.90700
O2493       O  0.95547809  0.65419341  0.35729169    -0.82900
O2494       O  0.93069237  0.60278180  0.44862685    -0.76400
Al2495     Al  0.98083380  0.62412050  0.37094785     1.90100
O2496       O  0.91762230  0.63237847  0.36551000    -0.75500
O2497       O  0.91373857  0.55873670  0.38667309    -0.75400
O2498       O  0.91666850  0.59115853  0.30095555    -0.81000
O2499       O  0.95366427  0.54150504  0.39835290    -0.79200
O2500       O  0.95888495  0.59479541  0.36446233    -1.15400
O2501       O  0.49997134  0.56366165  0.40067416    -0.74600
C2502       C  0.51956695  0.57991980  0.39810948     0.96200
C2503       C  0.92987576  0.65412799  0.35838577     0.92600
Al2504     Al  0.92312931  0.59638562  0.37516495     1.55600
O2505       O  0.98987748  0.62358020  0.29721665    -0.79200
C2506       C  0.92826003  0.53853116  0.39759071     0.96700
C2507       C  0.95143681  0.61486569  0.46984918     0.91600
O2508       O  0.97169978  0.62460469  0.44364275    -0.84500
O2509       O  0.52761907  0.86788109  0.54573962    -0.84000
C2510       C  0.56839954  0.92027660  0.72063662     0.95400
O2511       O  0.58239346  0.90320824  0.69538448    -0.73100
O2512       O  0.57448682  0.85674497  0.66509391    -0.76700
Al2513     Al  0.57668023  0.88960098  0.62785144     1.49000
C2514       C  0.56897668  0.83503659  0.64279367     0.90700
O2515       O  0.51253501  0.86203715  0.69201935    -0.82900
O2516       O  0.50254200  0.92276303  0.58572637    -0.76400
Al2517     Al  0.51934667  0.86423348  0.61709215     1.90100
O2518       O  0.50169135  0.90649990  0.69431567    -0.75500
O2519       O  0.54821860  0.94688706  0.60183322    -0.75400
O2520       O  0.54725067  0.93127604  0.70242432    -0.81000
O2521       O  0.58675941  0.92413211  0.59859407    -0.79200
O2522       O  0.54115756  0.89349542  0.62932588    -1.15400
O2523       O  0.57295467  0.87550310  0.55600373    -0.74600
C2524       C  0.55167200  0.87165157  0.52698746     0.96200
C2525       C  0.50503744  0.88341770  0.71758673     0.92600
Al2526     Al  0.52582809  0.92467928  0.64449329     1.55600
O2527       O  0.54672085  0.83413474  0.61851527    -0.79200
C2528       C  0.57366870  0.94616688  0.59414265     0.96700
C2529       C  0.98155720  0.90849634  0.59086844     0.91600
O2530       O  0.98448237  0.88425883  0.60758942    -0.84500
O2531       O  0.99048791  0.88315078  0.38540784    -0.84000
C2532       C  0.57645652  0.91476208  0.27417072     0.95400
O2533       O  0.55815697  0.93001989  0.29424132    -0.73100
O2534       O  0.50980648  0.90914610  0.29498210    -0.76700
Al2535     Al  0.53240575  0.92477845  0.34838610     1.49000
C2536       C  0.50809800  0.88572124  0.27338686     0.90700
O2537       O  0.54999517  0.83343313  0.35733555    -0.82900
O2538       O  0.57478420  0.88485471  0.44864601    -0.76400
Al2539     Al  0.52463702  0.86350593  0.37098121     1.90100
O2540       O  0.58785066  0.85525162  0.36552796    -0.75500
O2541       O  0.59172614  0.92889518  0.38668299    -0.75400
O2542       O  0.58879819  0.89646894  0.30096784    -0.81000
O2543       O  0.55179904  0.94612662  0.39835032    -0.79200
O2544       O  0.54658338  0.89283148  0.36448165    -1.15400
O2545       O  0.00549593  0.92396556  0.40068952    -0.74600
C2546       C  0.98590036  0.90770816  0.39812658     0.96200
C2547       C  0.57559794  0.83350121  0.35841719     0.92600
Al2548     Al  0.58234052  0.89124572  0.37517972     1.55600
O2549       O  0.51558902  0.86403664  0.29724468    -0.79200
C2550       C  0.57720198  0.94910104  0.39759903     0.96700
C2551       C  0.55404169  0.87277523  0.46987852     0.91600
O2552       O  0.53377606  0.86303256  0.44367815    -0.84500
O2553       O  0.87681152  0.96894173  0.54571440    -0.84000
C2554       C  0.92919697  0.92816488  0.72061632     0.95400
O2555       O  0.91212893  0.91416839  0.69536888    -0.73100
O2556       O  0.86566969  0.92207011  0.66506771    -0.76700
Al2557     Al  0.89852440  0.91987743  0.62783379     1.49000
C2558       C  0.84396358  0.92759179  0.64277949     0.90700
O2559       O  0.87097021  0.98404219  0.69199144    -0.82900
O2560       O  0.93168463  0.99402368  0.58569532    -0.76400
Al2561     Al  0.87316543  0.97722312  0.61706562     1.90100
O2562       O  0.91542545  0.99488421  0.69428726    -0.75500
O2563       O  0.95580148  0.94834350  0.60180931    -0.75400
O2564       O  0.94019530  0.94931575  0.70240033    -0.81000
O2565       O  0.93305183  0.90979498  0.59858018    -0.79200
O2566       O  0.90241950  0.95540674  0.62930407    -1.15400
O2567       O  0.88442954  0.92359816  0.55598937    -0.74600
C2568       C  0.88057998  0.94488176  0.52696855     0.96200
C2569       C  0.89234739  0.99153979  0.71755889     0.92600
Al2570     Al  0.93359943  0.97073895  0.64446726     1.55600
O2571       O  0.84306863  0.94985091  0.61849786    -0.79200
C2572       C  0.95508360  0.92288882  0.59412446     0.96700
C2573       C  0.91742397  0.51501402  0.59083667     0.91600
O2574       O  0.89318985  0.51209088  0.60755485    -0.84500
O2575       O  0.89210017  0.50605497  0.38537537    -0.84000
C2576       C  0.92366673  0.92005074  0.27416428     0.95400
O2577       O  0.93893776  0.93833732  0.29424641    -0.73100
O2578       O  0.91808025  0.98670304  0.29493371    -0.76700
Al2579     Al  0.93370152  0.96410730  0.34836560     1.49000
C2580       C  0.89465774  0.98842460  0.27334842     0.90700
O2581       O  0.84236684  0.94655974  0.35732171    -0.82900
O2582       O  0.89377355  0.92175129  0.44863778    -0.76400
Al2583     Al  0.87244451  0.97190797  0.37095796     1.90100
O2584       O  0.86416213  0.90868691  0.36553475    -0.75500
O2585       O  0.93780378  0.90478259  0.38667107    -0.75400
O2586       O  0.90536984  0.90771575  0.30095596    -0.81000
O2587       O  0.95502880  0.94471619  0.39836032    -0.79200
O2588       O  0.90175454  0.94994382  0.36446431    -1.15400
O2589       O  0.93290314  0.99103178  0.40064667    -0.74600
C2590       C  0.91665486  0.51063452  0.39809413     0.96200
C2591       C  0.84242110  0.92095306  0.35841864     0.92600
Al2592     Al  0.90015612  0.91418141  0.37517296     1.55600
O2593       O  0.87297521  0.98094989  0.29721984    -0.79200
C2594       C  0.95800527  0.91930856  0.39760205     0.96700
C2595       C  0.88170361  0.94250446  0.46986178     0.91600
O2596       O  0.87196898  0.96277428  0.44365538    -0.84500
O2597       O  0.62866817  0.51871221  0.54574482    -0.84000
C2598       C  0.57628555  0.55950651  0.72062410     0.95400
O2599       O  0.59335854  0.57349953  0.69538244    -0.73100
O2600       O  0.63981419  0.56559709  0.66507949    -0.76700
Al2601     Al  0.60695862  0.56778631  0.62784659     1.49000
C2602       C  0.66151970  0.56007280  0.64279122     0.90700
O2603       O  0.63451037  0.50362993  0.69203306    -0.82900
O2604       O  0.57379999  0.99363295  0.58572760    -0.76400
Al2605     Al  0.63231626  0.51043938  0.61710155     1.90100
O2606       O  0.59005341  0.49279179  0.69432650    -0.75500
O2607       O  0.54968476  0.53931657  0.60180238    -0.75400
O2608       O  0.56528172  0.53835991  0.70240195    -0.81000
O2609       O  0.57242937  0.57786793  0.59859595    -0.79200
O2610       O  0.60306284  0.53225749  0.62932669    -1.15400
O2611       O  0.62104828  0.56405728  0.55599916    -0.74600
C2612       C  0.62489549  0.54276841  0.52698624     0.96200
C2613       C  0.61313256  0.49613483  0.71760024     0.92600
Al2614     Al  0.57188231  0.51692789  0.64448484     1.55600
O2615       O  0.66241368  0.53781120  0.61852029    -0.79200
C2616       C  0.55040073  0.56477159  0.59412458     0.96700
C2617       C  0.58806144  0.97264374  0.59088150     0.91600
O2618       O  0.61229309  0.97556908  0.60760676    -0.84500
O2619       O  0.61336288  0.98157527  0.38540473    -0.84000
C2620       C  0.58179785  0.56756909  0.27415872     0.95400
O2621       O  0.56652653  0.54928445  0.29424530    -0.73100
O2622       O  0.58738286  0.50091937  0.29495680    -0.76700
Al2623     Al  0.57176249  0.52351939  0.34837782     1.49000
C2624       C  0.61080516  0.49919874  0.27337567     0.90700
O2625       O  0.66309833  0.54106317  0.35734567    -0.82900
O2626       O  0.61169508  0.56588712  0.44864238    -0.76400
Al2627     Al  0.63301873  0.51571955  0.37098379     1.90100
O2628       O  0.64130360  0.57893783  0.36552804    -0.75500
O2629       O  0.56766265  0.58284677  0.38666507    -0.75400
O2630       O  0.60009507  0.57990523  0.30095199    -0.81000
O2631       O  0.55043785  0.54291443  0.39836612    -0.79200
O2632       O  0.60370971  0.53768390  0.36447728    -1.15400
O2633       O  0.57255997  0.99659948  0.40066643    -0.74600
C2634       C  0.58880796  0.97699601  0.39811544     0.96200
C2635       C  0.66304411  0.56666952  0.35842393     0.92600
Al2636     Al  0.60530996  0.57344737  0.37517163     1.55600
O2637       O  0.63248806  0.50667267  0.29724949    -0.79200
C2638       C  0.54746136  0.56832095  0.39759741     0.96700
C2639       C  0.62376483  0.54513574  0.46987644     0.91600
O2640       O  0.63349409  0.52486082  0.44367965    -0.84500
O2641       O  0.89208961  0.98155752  0.10731287    -0.84000
C2642       C  0.92367922  0.56753626  0.21856851     0.95400
O2643       O  0.93893904  0.54924141  0.19848527    -0.73100
O2644       O  0.91807462  0.50088030  0.19774050    -0.76700
Al2645     Al  0.93369935  0.52348913  0.14433591     1.49000
C2646       C  0.89465469  0.49916956  0.21933522     0.90700
O2647       O  0.84236224  0.54105626  0.13537098    -0.82900
O2648       O  0.89376876  0.56587660  0.04409327    -0.76400
Al2649     Al  0.87244046  0.51570650  0.12173700     1.90100
O2650       O  0.86416661  0.57892738  0.12722490    -0.75500
O2651       O  0.93780741  0.58282320  0.10606406    -0.75400
O2652       O  0.90538442  0.57987887  0.19178028    -0.81000
O2653       O  0.95503604  0.54289122  0.09437266    -0.79200
O2654       O  0.90175469  0.53766405  0.12824672    -1.15400
O2655       O  0.93289040  0.99658011  0.09202323    -0.74600
C2656       C  0.91664339  0.97697648  0.09459145     0.96200
C2657       C  0.84242088  0.56666357  0.13431010     0.92600
Al2658     Al  0.90016032  0.57342822  0.11756554     1.55600
O2659       O  0.87297207  0.50665668  0.19547565    -0.79200
C2660       C  0.95801060  0.56829888  0.09514093     0.96700
C2661       C  0.88169938  0.54512710  0.02285091     0.91600
O2662       O  0.87196842  0.52485056  0.04904140    -0.84500
O2663       O  0.87680431  0.51870582  0.94697978    -0.84000
C2664       C  0.92918307  0.55950364  0.77209451     0.95400
O2665       O  0.91210215  0.57349178  0.79732692    -0.73100
O2666       O  0.86564904  0.56558385  0.82764434    -0.76700
Al2667     Al  0.89850688  0.56778174  0.86487111     1.49000
C2668       C  0.84394593  0.56005970  0.84993690     0.90700
O2669       O  0.87096686  0.50362079  0.80069610    -0.82900
O2670       O  0.93167793  0.99363530  0.90700223    -0.76400
Al2671     Al  0.87315890  0.51043142  0.87562568     1.90100
O2672       O  0.91542627  0.49279138  0.79840197    -0.75500
O2673       O  0.95578459  0.53932344  0.89093319    -0.75400
O2674       O  0.94019374  0.53836293  0.79032853    -0.81000
O2675       O  0.93303792  0.57787402  0.89410757    -0.79200
O2676       O  0.90240910  0.53225429  0.86339927    -1.15400
O2677       O  0.88442189  0.56405183  0.93672732    -0.74600
C2678       C  0.88057358  0.54276227  0.96573945     0.96200
C2679       C  0.89234717  0.49613044  0.77513081     0.92600
Al2680     Al  0.93359306  0.51693035  0.84824591     1.55600
O2681       O  0.84305545  0.53779826  0.87421026    -0.79200
C2682       C  0.95506807  0.56478081  0.89858871     0.96700
C2683       C  0.91742073  0.97264390  0.90184956     0.91600
O2684       O  0.89318775  0.97556509  0.88512123    -0.84500
O2685       O  0.51498011  0.88316162  0.10735156    -0.84000
C2686       C  0.92898675  0.91473329  0.21856050     0.95400
O2687       O  0.94726979  0.93000951  0.19848486    -0.73100
O2688       O  0.99562745  0.90915031  0.19779897    -0.76700
Al2689     Al  0.97303946  0.92477460  0.14436946     1.49000
C2690       C  0.99735244  0.88572263  0.21937976     0.90700
O2691       O  0.95548298  0.83342544  0.13541828    -0.82900
O2692       O  0.93069094  0.88484873  0.04408439    -0.76400
Al2693     Al  0.98083509  0.86350476  0.12176969     1.90100
O2694       O  0.91762252  0.85522898  0.12716586    -0.75500
O2695       O  0.91372709  0.92887661  0.10605928    -0.75400
O2696       O  0.91665617  0.89643388  0.19176245    -0.81000
O2697       O  0.95365260  0.94610779  0.09437318    -0.79200
O2698       O  0.95887854  0.89282237  0.12826202    -1.15400
O2699       O  0.49996668  0.92397734  0.09210055    -0.74600
C2700       C  0.51956488  0.90772225  0.09464738     0.96200
C2701       C  0.92988042  0.83348365  0.13430343     0.92600
Al2702     Al  0.92312259  0.89122590  0.11754602     1.55600
O2703       O  0.98987896  0.86403657  0.19550611    -0.79200
C2704       C  0.92824823  0.94908129  0.09512555     0.96700
C2705       C  0.95143791  0.87277133  0.02286039     0.91600
O2706       O  0.97170020  0.86302883  0.04906771    -0.84500
O2707       O  0.97786511  0.86788100  0.94700337    -0.84000
C2708       C  0.93708743  0.92027557  0.77210289     0.95400
O2709       O  0.92309225  0.90320894  0.79735841    -0.73100
O2710       O  0.93099420  0.85674346  0.82765060    -0.76700
Al2711     Al  0.92880499  0.88960128  0.86489065     1.49000
C2712       C  0.93650428  0.83503535  0.84995045     0.90700
O2713       O  0.99295068  0.86203680  0.80072271    -0.82900
O2714       O  0.50294273  0.92276486  0.90701707    -0.76400
Al2715     Al  0.98613801  0.86423342  0.87564998     1.90100
O2716       O  0.00379750  0.90649872  0.79843087    -0.75500
O2717       O  0.95726562  0.94689035  0.89089933    -0.75400
O2718       O  0.95823822  0.93127311  0.79031334    -0.81000
O2719       O  0.91872708  0.92413182  0.89414948    -0.79200
O2720       O  0.96432785  0.89349537  0.86341570    -1.15400
O2721       O  0.93252984  0.87550300  0.93673476    -0.74600
C2722       C  0.95381229  0.87165022  0.96575314     0.96200
C2723       C  0.00044986  0.88341716  0.77515656     0.92600
Al2724     Al  0.97965841  0.92467927  0.84824692     1.55600
O2725       O  0.95876159  0.83413361  0.87422516    -0.79200
C2726       C  0.93181646  0.94616918  0.89859319     0.96700
C2727       C  0.52392855  0.90849857  0.90187523     0.91600
O2728       O  0.52100301  0.88426026  0.88515562    -0.84500
O2729       O  0.61337867  0.50607350  0.10734598    -0.84000
C2730       C  0.58178768  0.92008934  0.21857811     0.95400
O2731       O  0.56652968  0.93838639  0.19849632    -0.73100
O2732       O  0.58739054  0.98674907  0.19775944    -0.76700
Al2733     Al  0.57176913  0.96413933  0.14435074     1.49000
C2734       C  0.61080893  0.98845718  0.21936422     0.90700
O2735       O  0.66310633  0.94657687  0.13541625    -0.82900
O2736       O  0.61170459  0.92176639  0.04410803    -0.76400
Al2737     Al  0.63302963  0.97192650  0.12177496     1.90100
O2738       O  0.64130463  0.90870567  0.12723951    -0.75500
O2739       O  0.56766467  0.90480493  0.10606625    -0.75400
O2740       O  0.60008386  0.90774801  0.19178952    -0.81000
O2741       O  0.55043298  0.94473563  0.09438380    -0.79200
O2742       O  0.60371525  0.94996715  0.12826832    -1.15400
O2743       O  0.57257958  0.99104811  0.09203835    -0.74600
C2744       C  0.58882838  0.51065239  0.09460610     0.96200
C2745       C  0.66304870  0.92096987  0.13434243     0.92600
Al2746     Al  0.60531113  0.91420470  0.11757585     1.55600
O2747       O  0.63249298  0.98097016  0.19551006    -0.79200
C2748       C  0.54745956  0.91932745  0.09515080     0.96700
C2749       C  0.62377530  0.94251943  0.02287956     0.91600
O2750       O  0.63350839  0.96279011  0.04908202    -0.84500
O2751       O  0.62866604  0.96895477  0.94702486    -0.84000
C2752       C  0.57628896  0.92816605  0.77212467     0.95400
O2753       O  0.59336288  0.91417489  0.79736789    -0.73100
O2754       O  0.63981932  0.92208141  0.82767862    -0.76700
Al2755     Al  0.60696224  0.91988587  0.86490564     1.49000
C2756       C  0.66152319  0.92760446  0.84997498     0.90700
O2757       O  0.63450975  0.98404989  0.80074234    -0.82900
O2758       O  0.57379286  0.99403558  0.90703325    -0.76400
Al2759     Al  0.63231407  0.97723449  0.87567157     1.90100
O2760       O  0.59005200  0.99488357  0.79844032    -0.75500
O2761       O  0.54968352  0.94834829  0.89094416    -0.75400
O2762       O  0.56528388  0.94931240  0.79034719    -0.81000
O2763       O  0.57243309  0.90979952  0.89415082    -0.79200
O2764       O  0.60306262  0.95541475  0.86343483    -1.15400
O2765       O  0.62105240  0.92360952  0.93675210    -0.74600
C2766       C  0.62489963  0.94489538  0.96577357     0.96200
C2767       C  0.61313123  0.99154363  0.77517270     0.92600
Al2768     Al  0.57188067  0.97074228  0.84827183     1.55600
O2769       O  0.66241506  0.94986456  0.87425155    -0.79200
C2770       C  0.55040200  0.92289232  0.89861800     0.96700
C2771       C  0.58805187  0.51502597  0.90188491     0.91600
O2772       O  0.61228721  0.51210222  0.88517031    -0.84500
O2773       O  0.99048881  0.60446216  0.10734163    -0.84000
C2774       C  0.57647946  0.57288532  0.21855465     0.95400
O2775       O  0.55819842  0.55760872  0.19846978    -0.73100
O2776       O  0.50983971  0.57846576  0.19777867    -0.76700
Al2777     Al  0.53242962  0.56284722  0.14434841     1.49000
C2778       C  0.50811419  0.60189128  0.21936197     0.90700
O2779       O  0.54997977  0.65420087  0.13542197    -0.82900
O2780       O  0.57477569  0.60278874  0.04408035    -0.76400
Al2781     Al  0.52463071  0.62411927  0.12176669     1.90100
O2782       O  0.58784030  0.63239737  0.12717901    -0.75500
O2783       O  0.59174291  0.55875314  0.10604694    -0.75400
O2784       O  0.58880905  0.59118753  0.19175969    -0.81000
O2785       O  0.55181908  0.54152063  0.09434781    -0.79200
O2786       O  0.54658874  0.59480215  0.12825295    -1.15400
O2787       O  0.00550303  0.56364799  0.09207566    -0.74600
C2788       C  0.98590436  0.57990316  0.09463065     0.96200
C2789       C  0.57558175  0.65414279  0.13431234     0.92600
Al2790     Al  0.58234400  0.59640226  0.11754358     1.55600
O2791       O  0.51558799  0.62358000  0.19549870    -0.79200
C2792       C  0.57722272  0.53854761  0.09511436     0.96700
C2793       C  0.55402965  0.61486891  0.02285887     0.91600
O2794       O  0.53376393  0.62460358  0.04906852    -0.84500
O2795       O  0.52760675  0.61978204  0.94699540    -0.84000
C2796       C  0.56839637  0.56739362  0.77211131     0.95400
O2797       O  0.58238734  0.58446543  0.79736243    -0.73100
O2798       O  0.57448180  0.63092481  0.82765436    -0.76700
Al2799     Al  0.57667204  0.59806805  0.86489377     1.49000
C2800       C  0.56897250  0.65263360  0.84995341     0.90700
O2801       O  0.51253112  0.62563081  0.80070529    -0.82900
O2802       O  0.50252727  0.56490591  0.90699741    -0.76400
Al2803     Al  0.51933870  0.62343440  0.87563794     1.90100
O2804       O  0.50169084  0.58116635  0.79840650    -0.75500
O2805       O  0.54820877  0.54078279  0.89092297    -0.75400
O2806       O  0.54725102  0.55638888  0.79032531    -0.81000
O2807       O  0.58675043  0.56353660  0.89414937    -0.79200
O2808       O  0.54114968  0.59417295  0.86341079    -1.15400
O2809       O  0.57294308  0.61216153  0.93673876    -0.74600
C2810       C  0.55165916  0.61600653  0.96575236     0.96200
C2811       C  0.50503423  0.60424947  0.77513755     0.92600
Al2812     Al  0.52582175  0.56298825  0.84824401     1.55600
O2813       O  0.54671584  0.65353500  0.87422844    -0.79200
C2814       C  0.57365813  0.54150201  0.89861245     0.96700
C2815       C  0.98154266  0.57917277  0.90184492     0.91600
O2816       O  0.98447149  0.60340998  0.88512350    -0.84500
loop_ 
_geom_bond_atom_site_label_1 
_geom_bond_atom_site_label_2 
_geom_bond_distance 
_geom_bond_site_symmetry_2 
_ccdc_geom_bond_type 
O1           C16   1.281       .  A
O1           Al9   1.879       .  S
C2           O12   1.253       .  A
C2            O3   1.256       .  A
C2          C266   1.426       .  S
O3           Al5   1.873       .  S
O4            C6   1.233       .  A
O4           Al5   1.868       .  S
Al5          O13   1.908       .  S
Al5          O15   1.972       .  S
Al5          O14   1.744       .  S
C6           O19   1.252       .  A
C6          C633   1.469       .  S
O7           C17   1.285       .  A
O7           Al9   1.950       .  S
O8           C21   1.245       .  A
O8          Al18   1.888       .  S
Al9          O22   1.977       .  S
Al9          O19   1.986       .  S
Al9          O14   1.808       .  S
O10          C17   1.284       .  A
O10         Al18   1.950       .  S
O11          C20   1.258       .  A
O11         Al18   1.887       .  S
O12         Al18   1.843       .  S
O13          C20   1.256       .  A
O14         Al18   1.739       .  S
O15          C16   1.291       .  A
C16          C43   1.468   1_554  S
C17         C237   1.491       .  S
C20         C153   1.473       .  S
C21          O22   1.266       .  A
C21          C64   1.473       .  S
O23          C38   1.262       .  A
O23         Al31   1.958       .  S
C24          O34   1.277       .  A
C24          O25   1.271       .  A
C24         C288   1.470       .  S
O25         Al27   1.888       .  S
O26          C28   1.272       .  A
O26         Al27   1.915       .  S
Al27         O35   1.902       .  S
Al27         O37   1.876       .  S
Al27         O36   1.755       .  S
C28          O41   1.275       .  A
C28         C248   1.479       .  S
O29          C39   1.250       .  A
O29         Al31   1.951       .  S
O30          C43   1.291       .  A
O30         Al40   1.942       .  S
Al31         O44   1.914       .  S
Al31         O41   1.939       .  S
Al31         O36   1.795       .  S
O32          C39   1.232       .  A
O32         Al40   1.794       .  S
O33          C42   1.246       .  A
O33         Al40   1.916       .  S
O34         Al40   1.943       .  S
O35          C42   1.248       .  A
O36         Al40   1.768       .  S
O37          C38   1.244       .  A
C38          C86   1.474       .  S
C39         C644   1.469       .  S
C42         C170   1.474       .  S
C43          O44   1.286       .  A
O45          C60   1.282       .  A
O45         Al53   1.879       .  S
C46          O56   1.253       .  A
C46          O47   1.256       .  A
C46         C222   1.426       .  S
O47         Al49   1.873       .  S
O48          C50   1.233       .  A
O48         Al49   1.868       .  S
Al49         O57   1.909       .  S
Al49         O59   1.972       .  S
Al49         O58   1.744       .  S
C50          O63   1.252       .  A
C50         C589   1.469       .  S
O51          C61   1.285       .  A
O51         Al53   1.950       .  S
O52          C65   1.245       .  A
O52         Al62   1.888       .  S
Al53         O66   1.977       .  S
Al53         O63   1.986       .  S
Al53         O58   1.808       .  S
O54          C61   1.285       .  A
O54         Al62   1.950       .  S
O55          C64   1.258       .  A
O55         Al62   1.887       .  S
O56         Al62   1.843       .  S
O57          C64   1.256       .  A
O58         Al62   1.739       .  S
O59          C60   1.291       .  A
C60          C87   1.467   1_554  S
C61         C193   1.491       .  S
C65          O66   1.266       .  A
C65         C108   1.473       .  S
O67          C82   1.262       .  A
O67         Al75   1.958       .  S
C68          O78   1.277       .  A
C68          O69   1.271       .  A
C68         C244   1.470       .  S
O69         Al71   1.888       .  S
O70          C72   1.272       .  A
O70         Al71   1.915       .  S
Al71         O79   1.902       .  S
Al71         O81   1.876       .  S
Al71         O80   1.755       .  S
C72          O85   1.275       .  A
C72         C204   1.479       .  S
O73          C83   1.250       .  A
O73         Al75   1.951       .  S
O74          C87   1.291       .  A
O74         Al84   1.942       .  S
Al75         O88   1.914       .  S
Al75         O85   1.939       .  S
Al75         O80   1.795       .  S
O76          C83   1.232       .  A
O76         Al84   1.794       .  S
O77          C86   1.246       .  A
O77         Al84   1.916       .  S
O78         Al84   1.942       .  S
O79          C86   1.248       .  A
O80         Al84   1.768       .  S
O81          C82   1.244       .  A
C82         C130   1.474       .  S
C83         C600   1.469       .  S
C87          O88   1.286       .  A
O89         C104   1.282       .  A
O89         Al97   1.879       .  S
C90         O100   1.253       .  A
C90          O91   1.256       .  A
C90         C178   1.426       .  S
O91         Al93   1.873       .  S
O92          C94   1.233       .  A
O92         Al93   1.868       .  S
Al93        O101   1.908       .  S
Al93        O103   1.972       .  S
Al93        O102   1.744       .  S
C94         O107   1.252       .  A
C94         C545   1.469       .  S
O95         C105   1.285       .  A
O95         Al97   1.950       .  S
O96         C109   1.245       .  A
O96        Al106   1.888       .  S
Al97        O110   1.977       .  S
Al97        O107   1.986       .  S
Al97        O102   1.808       .  S
O98         C105   1.285       .  A
O98        Al106   1.950       .  S
O99         C108   1.258       .  A
O99        Al106   1.887       .  S
O100       Al106   1.843       .  S
O101        C108   1.256       .  A
O102       Al106   1.739       .  S
O103        C104   1.291       .  A
C104        C131   1.467   1_554  S
C105        C325   1.491       .  S
C109        O110   1.266       .  A
C109        C152   1.473       .  S
O111        C126   1.262       .  A
O111       Al119   1.958       .  S
C112        O122   1.277       .  A
C112        O113   1.271       .  A
C112        C200   1.470       .  S
O113       Al115   1.888       .  S
O114        C116   1.272       .  A
O114       Al115   1.915       .  S
Al115       O123   1.902       .  S
Al115       O125   1.876       .  S
Al115       O124   1.755       .  S
C116        O129   1.275       .  A
C116        C336   1.479       .  S
O117        C127   1.250       .  A
O117       Al119   1.951       .  S
O118        C131   1.291       .  A
O118       Al128   1.942       .  S
Al119       O132   1.914       .  S
Al119       O129   1.938       .  S
Al119       O124   1.795       .  S
O120        C127   1.232       .  A
O120       Al128   1.794       .  S
O121        C130   1.246       .  A
O121       Al128   1.916       .  S
O122       Al128   1.943       .  S
O123        C130   1.248       .  A
O124       Al128   1.768       .  S
O125        C126   1.244       .  A
C126        C174   1.474       .  S
C127        C556   1.469       .  S
C131        O132   1.286       .  A
O133        C148   1.282       .  A
O133       Al141   1.879       .  S
C134        O144   1.253       .  A
C134        O135   1.256       .  A
C134        C310   1.426       .  S
O135       Al137   1.873       .  S
O136        C138   1.233       .  A
O136       Al137   1.868       .  S
Al137       O145   1.909       .  S
Al137       O147   1.972       .  S
Al137       O146   1.744       .  S
C138        O151   1.252       .  A
C138        C677   1.469       .  S
O139        C149   1.285       .  A
O139       Al141   1.950       .  S
O140        C153   1.245       .  A
O140       Al150   1.888       .  S
Al141       O154   1.977       .  S
Al141       O151   1.986       .  S
Al141       O146   1.808       .  S
O142        C149   1.285       .  A
O142       Al150   1.950       .  S
O143        C152   1.258       .  A
O143       Al150   1.887       .  S
O144       Al150   1.843       .  S
O145        C152   1.256       .  A
O146       Al150   1.739       .  S
O147        C148   1.291       .  A
C148        C175   1.467   1_554  S
C149        C281   1.491       .  S
C153        O154   1.266       .  A
O155        C170   1.262       .  A
O155       Al163   1.958       .  S
C156        O166   1.277       .  A
C156        O157   1.271       .  A
C156        C332   1.470       .  S
O157       Al159   1.888       .  S
O158        C160   1.272       .  A
O158       Al159   1.915       .  S
Al159       O167   1.902       .  S
Al159       O169   1.876       .  S
Al159       O168   1.755       .  S
C160        O173   1.275       .  A
C160        C292   1.479       .  S
O161        C171   1.250       .  A
O161       Al163   1.951       .  S
O162        C175   1.291       .  A
O162       Al172   1.942       .  S
Al163       O176   1.914       .  S
Al163       O173   1.939       .  S
Al163       O168   1.795       .  S
O164        C171   1.232       .  A
O164       Al172   1.794       .  S
O165        C174   1.246       .  A
O165       Al172   1.916       .  S
O166       Al172   1.943       .  S
O167        C174   1.248       .  A
O168       Al172   1.768       .  S
O169        C170   1.244       .  A
C171        C688   1.469       .  S
C175        O176   1.286       .  A
O177        C192   1.282       .  A
O177       Al185   1.879       .  S
C178        O188   1.253       .  A
C178        O179   1.256       .  A
O179       Al181   1.873       .  S
O180        C182   1.233       .  A
O180       Al181   1.868       .  S
Al181       O189   1.908       .  S
Al181       O191   1.972       .  S
Al181       O190   1.744       .  S
C182        O195   1.252       .  A
C182        C391   1.469       .  S
O183        C193   1.285       .  A
O183       Al185   1.950       .  S
O184        C197   1.245       .  A
O184       Al194   1.888       .  S
Al185       O198   1.977       .  S
Al185       O195   1.986       .  S
Al185       O190   1.808       .  S
O186        C193   1.285       .  A
O186       Al194   1.950       .  S
O187        C196   1.258       .  A
O187       Al194   1.887       .  S
O188       Al194   1.843       .  S
O189        C196   1.256       .  A
O190       Al194   1.739       .  S
O191        C192   1.291       .  A
C192        C219   1.468       .  S
C196        C329   1.473       .  S
C197        O198   1.266       .  A
C197        C240   1.473       .  S
O199        C214   1.262       .  A
O199       Al207   1.958       .  S
C200        O210   1.277       .  A
C200        O201   1.271       .  A
O201       Al203   1.888       .  S
O202        C204   1.272       .  A
O202       Al203   1.915       .  S
Al203       O211   1.902       .  S
Al203       O213   1.876       .  S
Al203       O212   1.755       .  S
C204        O217   1.275       .  A
O205        C215   1.250       .  A
O205       Al207   1.951       .  S
O206        C219   1.291       .  A
O206       Al216   1.942       .  S
Al207       O220   1.914       .  S
Al207       O217   1.939       .  S
Al207       O212   1.795       .  S
O208        C215   1.232       .  A
O208       Al216   1.794       .  S
O209        C218   1.246       .  A
O209       Al216   1.916       .  S
O210       Al216   1.943       .  S
O211        C218   1.248       .  A
O212       Al216   1.768       .  S
O213        C214   1.244       .  A
C214        C262   1.474       .  S
C215        C358   1.469       .  S
C218        C346   1.474       .  S
C219        O220   1.286       .  A
O221        C236   1.281       .  A
O221       Al229   1.879       .  S
C222        O232   1.253       .  A
C222        O223   1.256       .  A
O223       Al225   1.873       .  S
O224        C226   1.233       .  A
O224       Al225   1.868       .  S
Al225       O233   1.908       .  S
Al225       O235   1.972       .  S
Al225       O234   1.744       .  S
C226        O239   1.252       .  A
C226        C479   1.469       .  S
O227        C237   1.285       .  A
O227       Al229   1.950       .  S
O228        C241   1.245       .  A
O228       Al238   1.888       .  S
Al229       O242   1.977       .  S
Al229       O239   1.986       .  S
Al229       O234   1.808       .  S
O230        C237   1.284       .  A
O230       Al238   1.950       .  S
O231        C240   1.258       .  A
O231       Al238   1.887       .  S
O232       Al238   1.843       .  S
O233        C240   1.256       .  A
O234       Al238   1.739       .  S
O235        C236   1.291       .  A
C236        C263   1.467       .  S
C241        O242   1.266       .  A
C241        C284   1.473       .  S
O243        C258   1.262       .  A
O243       Al251   1.958       .  S
C244        O254   1.277       .  A
C244        O245   1.271       .  A
O245       Al247   1.888       .  S
O246        C248   1.272       .  A
O246       Al247   1.915       .  S
Al247       O255   1.902       .  S
Al247       O257   1.876       .  S
Al247       O256   1.755       .  S
C248        O261   1.275       .  A
O249        C259   1.250       .  A
O249       Al251   1.951       .  S
O250        C263   1.291       .  A
O250       Al260   1.942       .  S
Al251       O264   1.914       .  S
Al251       O261   1.939       .  S
Al251       O256   1.795       .  S
O252        C259   1.232       .  A
O252       Al260   1.794       .  S
O253        C262   1.246       .  A
O253       Al260   1.916       .  S
O254       Al260   1.942       .  S
O255        C262   1.248       .  A
O256       Al260   1.768       .  S
O257        C258   1.244       .  A
C258        C306   1.474       .  S
C259        C446   1.469       .  S
C263        O264   1.286       .  A
O265        C280   1.282       .  A
O265       Al273   1.879       .  S
C266        O276   1.253       .  A
C266        O267   1.256       .  A
O267       Al269   1.873       .  S
O268        C270   1.233       .  A
O268       Al269   1.868       .  S
Al269       O277   1.908       .  S
Al269       O279   1.972       .  S
Al269       O278   1.744       .  S
C270        O283   1.252       .  A
C270        C435   1.469       .  S
O271        C281   1.285       .  A
O271       Al273   1.950       .  S
O272        C285   1.245       .  A
O272       Al282   1.888       .  S
Al273       O286   1.977       .  S
Al273       O283   1.986       .  S
Al273       O278   1.808       .  S
O274        C281   1.284       .  A
O274       Al282   1.950       .  S
O275        C284   1.258       .  A
O275       Al282   1.887       .  S
O276       Al282   1.843       .  S
O277        C284   1.256       .  A
O278       Al282   1.739       .  S
O279        C280   1.291       .  A
C280        C307   1.467       .  S
C285        O286   1.266       .  A
C285        C328   1.473       .  S
O287        C302   1.262       .  A
O287       Al295   1.958       .  S
C288        O298   1.277       .  A
C288        O289   1.271       .  A
O289       Al291   1.888       .  S
O290        C292   1.272       .  A
O290       Al291   1.915       .  S
Al291       O299   1.902       .  S
Al291       O301   1.876       .  S
Al291       O300   1.755       .  S
C292        O305   1.275       .  A
O293        C303   1.250       .  A
O293       Al295   1.951       .  S
O294        C307   1.291       .  A
O294       Al304   1.942       .  S
Al295       O308   1.914       .  S
Al295       O305   1.939       .  S
Al295       O300   1.795       .  S
O296        C303   1.232       .  A
O296       Al304   1.794       .  S
O297        C306   1.246       .  A
O297       Al304   1.916       .  S
O298       Al304   1.943       .  S
O299        C306   1.248       .  A
O300       Al304   1.768       .  S
O301        C302   1.244       .  A
C302        C350   1.474       .  S
C303        C402   1.469       .  S
C307        O308   1.286       .  A
O309        C324   1.282       .  A
O309       Al317   1.879       .  S
C310        O320   1.253       .  A
C310        O311   1.256       .  A
O311       Al313   1.873       .  S
O312        C314   1.233       .  A
O312       Al313   1.868       .  S
Al313       O321   1.908       .  S
Al313       O323   1.972       .  S
Al313       O322   1.744       .  S
C314        O327   1.252       .  A
C314        C523   1.469       .  S
O315        C325   1.285       .  A
O315       Al317   1.950       .  S
O316        C329   1.245       .  A
O316       Al326   1.888       .  S
Al317       O330   1.977       .  S
Al317       O327   1.986       .  S
Al317       O322   1.808       .  S
O318        C325   1.285       .  A
O318       Al326   1.950       .  S
O319        C328   1.258       .  A
O319       Al326   1.887       .  S
O320       Al326   1.843       .  S
O321        C328   1.256       .  A
O322       Al326   1.739       .  S
O323        C324   1.291       .  A
C324        C351   1.467       .  S
C329        O330   1.266       .  A
O331        C346   1.262       .  A
O331       Al339   1.958       .  S
C332        O342   1.277       .  A
C332        O333   1.271       .  A
O333       Al335   1.888       .  S
O334        C336   1.272       .  A
O334       Al335   1.915       .  S
Al335       O343   1.902       .  S
Al335       O345   1.876       .  S
Al335       O344   1.755       .  S
C336        O349   1.275       .  A
O337        C347   1.250       .  A
O337       Al339   1.951       .  S
O338        C351   1.291       .  A
O338       Al348   1.942       .  S
Al339       O352   1.914       .  S
Al339       O349   1.938       .  S
Al339       O344   1.795       .  S
O340        C347   1.232       .  A
O340       Al348   1.794       .  S
O341        C350   1.246       .  A
O341       Al348   1.916       .  S
O342       Al348   1.942       .  S
O343        C350   1.248       .  A
O344       Al348   1.768       .  S
O345        C346   1.244       .  A
C347        C490   1.469       .  S
C351        O352   1.286       .  A
O353        C368   1.281       .  A
O353       Al361   1.879       .  S
C354        O364   1.253       .  A
C354        O355   1.256       .  A
C354        C552   1.426       .  S
O355       Al357   1.873       .  S
O356        C358   1.233       .  A
O356       Al357   1.868       .  S
Al357       O365   1.908       .  S
Al357       O367   1.972       .  S
Al357       O366   1.744       .  S
C358        O371   1.252       .  A
O359        C369   1.285       .  A
O359       Al361   1.950       .  S
O360        C373   1.245       .  A
O360      Al1778   1.888   1_455  S
Al361       O371   1.986       .  S
Al361      O1782   1.977       .  S
Al361       O366   1.808       .  S
O362        C369   1.284       .  A
O362       Al370   1.950       .  S
O363        C372   1.258       .  A
O363       Al370   1.887       .  S
O364       Al370   1.843       .  S
O365        C372   1.256       .  A
O366       Al370   1.739       .  S
O367        C368   1.291       .  A
C368        C395   1.467       .  S
C369       C2107   1.491       .  S
Al370      O1768   1.888       .  S
C372        C461   1.473       .  S
C373        O374   1.266       .  A
C373        C504   1.473       .  S
O374      Al1769   1.977   1_455  S
O375        C390   1.262       .  A
O375      Al1791   1.958   1_455  S
C376        O386   1.277       .  A
C376        O377   1.271       .  A
C376        C530   1.470       .  S
O377       Al379   1.888       .  S
O378        C380   1.272       .  A
O378       Al379   1.915       .  S
Al379       O387   1.902       .  S
Al379      O1797   1.876       .  S
Al379       O388   1.755       .  S
C380        O393   1.275       .  A
C380       C2074   1.479       .  S
O381        C391   1.250       .  A
O381       Al383   1.951       .  S
O382        C395   1.291       .  A
O382       Al392   1.942       .  S
Al383       O396   1.914       .  S
Al383       O393   1.938       .  S
Al383      O1783   1.958       .  S
Al383       O388   1.795       .  S
O384        C391   1.232       .  A
O384       Al392   1.794       .  S
O385        C394   1.246       .  A
O385       Al392   1.916       .  S
O386       Al392   1.942       .  S
O387        C394   1.248       .  A
O388       Al392   1.768       .  S
O389        C390   1.244   1_655  A
O389      Al1787   1.876       .  S
C390        C526   1.474       .  S
C394        C478   1.474       .  S
C395        O396   1.286       .  A
O397        C412   1.282       .  A
O397       Al405   1.879       .  S
C398        O408   1.253       .  A
C398        O399   1.256       .  A
C398        C640   1.426       .  S
O399       Al401   1.873       .  S
O400        C402   1.233       .  A
O400       Al401   1.868       .  S
Al401       O409   1.908       .  S
Al401       O411   1.972       .  S
Al401       O410   1.744       .  S
C402        O415   1.252       .  A
O403        C413   1.285       .  A
O403       Al405   1.950       .  S
O404       C1825   1.245   1_455  A
O404       Al414   1.888       .  S
Al405       O415   1.986       .  S
Al405      O1826   1.977   1_455  S
Al405       O410   1.808       .  S
O406        C413   1.285       .  A
O406       Al414   1.950       .  S
O407        C416   1.258       .  A
O407       Al414   1.887       .  S
O408       Al414   1.843       .  S
O409        C416   1.256       .  A
O410       Al414   1.739       .  S
O411        C412   1.291       .  A
C412        C439   1.467       .  S
C413       C2019   1.491       .  S
C416        C505   1.473       .  S
C417        O418   1.266       .  A
C417       O1812   1.245       .  A
C417        C460   1.473       .  S
O418      Al1813   1.977       .  S
O419        C434   1.262       .  A
O419      Al1835   1.958       .  S
C420        O430   1.277       .  A
C420        O421   1.271       .  A
C420        C618   1.470       .  S
O421       Al423   1.888       .  S
O422        C424   1.272       .  A
O422       Al423   1.915       .  S
Al423       O431   1.902       .  S
Al423      O1841   1.876       .  S
Al423       O432   1.755       .  S
C424        O437   1.275       .  A
C424       C1986   1.479   1_455  S
O425        C435   1.250       .  A
O425       Al427   1.951       .  S
O426        C439   1.291       .  A
O426       Al436   1.942       .  S
Al427       O440   1.914       .  S
Al427       O437   1.939       .  S
Al427      O1827   1.958   1_455  S
Al427       O432   1.795       .  S
O428        C435   1.232       .  A
O428       Al436   1.794       .  S
O429        C438   1.246       .  A
O429       Al436   1.916       .  S
O430       Al436   1.942       .  S
O431        C438   1.248       .  A
O432       Al436   1.768       .  S
O433        C434   1.244       .  A
O433      Al1831   1.876       .  S
C434        C482   1.474       .  S
C438        C522   1.474       .  S
C439        O440   1.286       .  A
O441        C456   1.281       .  A
O441       Al449   1.879       .  S
C442        O452   1.253       .  A
C442        O443   1.256       .  A
C442        C596   1.426       .  S
O443       Al445   1.873       .  S
O444        C446   1.233       .  A
O444       Al445   1.868       .  S
Al445       O453   1.908       .  S
Al445       O455   1.972       .  S
Al445       O454   1.744       .  S
C446        O459   1.252       .  A
O447        C457   1.285       .  A
O447       Al449   1.950       .  S
O448       C1165   1.245       .  A
O448       Al458   1.888       .  S
Al449       O459   1.986       .  S
Al449      O1166   1.977       .  S
Al449       O454   1.808       .  S
O450        C457   1.285       .  A
O450       Al458   1.950       .  S
O451        C460   1.258       .  A
O451       Al458   1.887       .  S
O452       Al458   1.843       .  S
O453        C460   1.256       .  A
O454       Al458   1.739       .  S
O455        C456   1.291       .  A
C456        C483   1.467       .  S
C457       C1271   1.491       .  S
C461        O462   1.266       .  A
C461       O1152   1.245   1_545  A
O462      Al1153   1.977   1_545  S
O463        C478   1.262       .  A
O463      Al1175   1.958   1_545  S
C464        O474   1.277       .  A
C464        O465   1.271       .  A
C464        C574   1.470       .  S
O465       Al467   1.888       .  S
O466        C468   1.272       .  A
O466       Al467   1.915       .  S
Al467       O475   1.902       .  S
Al467       O477   1.876       .  S
Al467       O476   1.755       .  S
C468        O481   1.275       .  A
C468       C1238   1.479       .  S
O469        C479   1.250       .  A
O469       Al471   1.951       .  S
O470        C483   1.291       .  A
O470       Al480   1.942       .  S
Al471       O484   1.914       .  S
Al471       O481   1.939       .  S
Al471      O1167   1.958       .  S
Al471       O476   1.795       .  S
O472        C479   1.232       .  A
O472       Al480   1.794       .  S
O473        C482   1.246       .  A
O473       Al480   1.916       .  S
O474       Al480   1.943       .  S
O475        C482   1.248       .  A
O476       Al480   1.768       .  S
O477       C1182   1.244       .  A
C478       O1181   1.244   1_545  A
C483        O484   1.286       .  A
O485        C500   1.282       .  A
O485       Al493   1.879       .  S
C486        O496   1.253       .  A
C486        O487   1.256       .  A
C486        C684   1.426       .  S
O487       Al489   1.873       .  S
O488        C490   1.233       .  A
O488       Al489   1.868       .  S
Al489       O497   1.908       .  S
Al489       O499   1.972       .  S
Al489       O498   1.744       .  S
C490        O503   1.252       .  A
O491        C501   1.285   1_545  A
O491       Al493   1.950       .  S
O492        C505   1.245       .  A
O492      Al1206   1.888       .  S
Al493       O503   1.986       .  S
Al493      O1210   1.977   1_545  S
Al493       O498   1.808       .  S
O494        C501   1.285       .  A
O494       Al502   1.950   1_565  S
O495        C504   1.258       .  A
O495       Al502   1.887       .  S
O496       Al502   1.843       .  S
O497        C504   1.256       .  A
O498       Al502   1.739       .  S
O499        C500   1.291       .  A
C500        C527   1.468       .  S
C501       C1359   1.491       .  S
Al502      O1196   1.888   1_545  S
C505        O506   1.266       .  A
O506      Al1197   1.977       .  S
O507        C522   1.262       .  A
O507      Al1219   1.958       .  S
C508        O518   1.277       .  A
C508        O509   1.271       .  A
C508        C662   1.470       .  S
O509       Al511   1.888       .  S
O510        C512   1.272   1_545  A
O510       Al511   1.915       .  S
Al511       O519   1.902       .  S
Al511      O1225   1.876   1_545  S
Al511       O520   1.755       .  S
C512        O525   1.275   1_565  A
C512       C1326   1.479       .  S
O513        C523   1.250       .  A
O513       Al515   1.951       .  S
O514        C527   1.291       .  A
O514       Al524   1.942       .  S
Al515       O528   1.914       .  S
Al515       O525   1.939       .  S
Al515      O1211   1.958   1_545  S
Al515       O520   1.795       .  S
O516        C523   1.232       .  A
O516       Al524   1.794       .  S
O517        C526   1.246       .  A
O517       Al524   1.916       .  S
O518       Al524   1.943       .  S
O519        C526   1.248       .  A
O520       Al524   1.768       .  S
O521        C522   1.244       .  A
O521      Al1215   1.876       .  S
C527        O528   1.286       .  A
O529        C544   1.262       .  A
O529      Al1241   1.958       .  S
C530        O540   1.277       .  A
C530        O531   1.271       .  A
O531       Al533   1.888       .  S
O532        C534   1.272   1_545  A
O532       Al533   1.915       .  S
Al533       O541   1.902       .  S
Al533      O1247   1.876   1_545  S
Al533       O542   1.755       .  S
C534        O547   1.275   1_565  A
C534       C1172   1.479       .  S
O535        C545   1.250       .  A
O535       Al537   1.951       .  S
O536        C549   1.291       .  A
O536       Al546   1.942       .  S
Al537       O550   1.914       .  S
Al537       O547   1.939       .  S
Al537      O1233   1.958   1_545  S
Al537       O542   1.795       .  S
O538        C545   1.232       .  A
O538       Al546   1.794       .  S
O539        C548   1.246       .  A
O539       Al546   1.916       .  S
O540       Al546   1.942       .  S
O541        C548   1.248       .  A
O542       Al546   1.768       .  S
O543        C544   1.244       .  A
O543      Al1237   1.876       .  S
C544        C592   1.474       .  S
C548        C676   1.474       .  S
C549        O550   1.286       .  A
C549        C566   1.468   1_554  S
O551        C566   1.282       .  A
O551       Al559   1.879       .  S
C552        O562   1.253       .  A
C552        O553   1.256       .  A
O553       Al555   1.873       .  S
O554        C556   1.233       .  A
O554       Al555   1.868       .  S
Al555       O563   1.909       .  S
Al555       O565   1.972       .  S
Al555       O564   1.744       .  S
C556        O569   1.252       .  A
O557        C567   1.285   1_545  A
O557       Al559   1.950       .  S
O558        C571   1.245       .  A
O558      Al1272   1.888       .  S
Al559       O569   1.986       .  S
Al559      O1276   1.977   1_545  S
Al559       O564   1.808       .  S
O560        C567   1.285       .  A
O560       Al568   1.950   1_565  S
O561        C570   1.258       .  A
O561       Al568   1.887       .  S
O562       Al568   1.843       .  S
O563        C570   1.256       .  A
O564       Al568   1.739       .  S
O565        C566   1.291       .  A
C567       C1161   1.491       .  S
Al568      O1262   1.888   1_545  S
C570        C703   1.473       .  S
C571        O572   1.266       .  A
C571        C614   1.473       .  S
O572      Al1263   1.977       .  S
O573        C588   1.262       .  A
O573      Al1989   1.958   1_455  S
C574        O584   1.277       .  A
C574        O575   1.271       .  A
O575       Al577   1.888       .  S
O576        C578   1.272       .  A
O576       Al577   1.915       .  S
Al577       O585   1.902       .  S
Al577      O1995   1.876       .  S
Al577       O586   1.755       .  S
C578        O591   1.275       .  A
C578       C1832   1.479       .  S
O579        C589   1.250       .  A
O579       Al581   1.951       .  S
O580        C593   1.291       .  A
O580       Al590   1.942       .  S
Al581       O594   1.914       .  S
Al581       O591   1.939       .  S
Al581      O1981   1.958       .  S
Al581       O586   1.795       .  S
O582        C589   1.232       .  A
O582       Al590   1.794       .  S
O583        C592   1.246       .  A
O583       Al590   1.916       .  S
O584       Al590   1.943       .  S
O585        C592   1.248       .  A
O586       Al590   1.768       .  S
O587        C588   1.244   1_655  A
O587      Al1985   1.876       .  S
C588        C636   1.474       .  S
C593        O594   1.286       .  A
C593        C610   1.467   1_554  S
O595        C610   1.282       .  A
O595       Al603   1.879       .  S
C596        O606   1.253       .  A
C596        O597   1.256       .  A
O597       Al599   1.873       .  S
O598        C600   1.233       .  A
O598       Al599   1.868       .  S
Al599       O607   1.908       .  S
Al599       O609   1.972       .  S
Al599       O608   1.744       .  S
C600        O613   1.252       .  A
O601        C611   1.285       .  A
O601       Al603   1.950       .  S
O602        C615   1.245       .  A
O602      Al2020   1.888   1_455  S
Al603       O613   1.986       .  S
Al603      O2024   1.977       .  S
Al603       O608   1.808       .  S
O604        C611   1.285       .  A
O604       Al612   1.950       .  S
O605        C614   1.258       .  A
O605       Al612   1.887       .  S
O606       Al612   1.843       .  S
O607        C614   1.256       .  A
O608       Al612   1.739       .  S
O609        C610   1.291       .  A
C611       C1821   1.491       .  S
Al612      O2010   1.888       .  S
C615        O616   1.266       .  A
C615        C658   1.473       .  S
O616      Al2011   1.977   1_455  S
O617        C632   1.262       .  A
O617      Al1329   1.958   1_545  S
C618        O628   1.277       .  A
C618        O619   1.271       .  A
O619       Al621   1.888       .  S
O620        C622   1.272       .  A
O620       Al621   1.915       .  S
Al621       O629   1.902       .  S
Al621       O631   1.876       .  S
Al621       O630   1.755       .  S
C622        O635   1.275       .  A
C622       C1216   1.479       .  S
O623        C633   1.250       .  A
O623       Al625   1.951       .  S
O624        C637   1.291       .  A
O624       Al634   1.942       .  S
Al625       O638   1.914       .  S
Al625       O635   1.939       .  S
Al625      O1321   1.958       .  S
Al625       O630   1.795       .  S
O626        C633   1.232       .  A
O626       Al634   1.794       .  S
O627        C636   1.246       .  A
O627       Al634   1.916       .  S
O628       Al634   1.943       .  S
O629        C636   1.248       .  A
O630       Al634   1.768       .  S
O631       C1336   1.244       .  A
C632       O1335   1.244   1_545  A
C632        C680   1.474       .  S
C637        O638   1.286       .  A
C637        C654   1.467   1_554  S
O639        C654   1.282       .  A
O639       Al647   1.879       .  S
C640        O650   1.253       .  A
C640        O641   1.256       .  A
O641       Al643   1.873       .  S
O642        C644   1.233       .  A
O642       Al643   1.868       .  S
Al643       O651   1.908       .  S
Al643       O653   1.972       .  S
Al643       O652   1.744       .  S
C644        O657   1.252       .  A
O645        C655   1.285       .  A
O645       Al647   1.950       .  S
O646       C1363   1.245       .  A
O646       Al656   1.888       .  S
Al647       O657   1.986       .  S
Al647      O1364   1.977       .  S
Al647       O652   1.808       .  S
O648        C655   1.285       .  A
O648       Al656   1.950       .  S
O649        C658   1.258       .  A
O649       Al656   1.887       .  S
O650       Al656   1.843       .  S
O651        C658   1.256       .  A
O652       Al656   1.739       .  S
O653        C654   1.291       .  A
C655       C1205   1.491       .  S
C659        O660   1.266       .  A
C659       O1350   1.245   1_545  A
C659        C702   1.473       .  S
O660      Al1351   1.977   1_545  S
O661        C676   1.262       .  A
O661      Al2077   1.958       .  S
C662        O672   1.277       .  A
C662        O663   1.271       .  A
O663       Al665   1.888       .  S
O664        C666   1.272       .  A
O664       Al665   1.915       .  S
Al665       O673   1.902       .  S
Al665      O2083   1.876       .  S
Al665       O674   1.755       .  S
C666        O679   1.275       .  A
C666       C1788   1.479   1_455  S
O667        C677   1.250       .  A
O667       Al669   1.951       .  S
O668        C681   1.291       .  A
O668       Al678   1.942       .  S
Al669       O682   1.914       .  S
Al669       O679   1.939       .  S
Al669      O2069   1.958   1_455  S
Al669       O674   1.795       .  S
O670        C677   1.232       .  A
O670       Al678   1.794       .  S
O671        C680   1.246       .  A
O671       Al678   1.916       .  S
O672       Al678   1.943       .  S
O673        C680   1.248       .  A
O674       Al678   1.768       .  S
O675        C676   1.244       .  A
O675      Al2073   1.876       .  S
C681        O682   1.286       .  A
C681        C698   1.467   1_554  S
O683        C698   1.282       .  A
O683       Al691   1.879       .  S
C684        O694   1.253       .  A
C684        O685   1.256       .  A
O685       Al687   1.873       .  S
O686        C688   1.233       .  A
O686       Al687   1.868       .  S
Al687       O695   1.908       .  S
Al687       O697   1.972       .  S
Al687       O696   1.744       .  S
C688        O701   1.252       .  A
O689        C699   1.285       .  A
O689       Al691   1.950       .  S
O690       C2111   1.245   1_455  A
O690       Al700   1.888       .  S
Al691       O701   1.986       .  S
Al691      O2112   1.977   1_455  S
Al691       O696   1.808       .  S
O692        C699   1.285       .  A
O692       Al700   1.950       .  S
O693        C702   1.258       .  A
O693       Al700   1.887       .  S
O694       Al700   1.843       .  S
O695        C702   1.256       .  A
O696       Al700   1.739       .  S
O697        C698   1.291       .  A
C699       C1777   1.491       .  S
C703        O704   1.266       .  A
C703       O2098   1.245       .  A
O704      Al2099   1.977       .  S
O705        C720   1.281       .  A
O705       Al713   1.879       .  S
C706        O716   1.253       .  A
C706        O707   1.256       .  A
C706        C970   1.426       .  S
O707       Al709   1.873       .  S
O708        C710   1.233       .  A
O708       Al709   1.868       .  S
Al709       O717   1.908       .  S
Al709       O719   1.972       .  S
Al709       O718   1.744       .  S
C710        O723   1.252       .  A
C710       C1337   1.469       .  S
O711        C721   1.285       .  A
O711       Al713   1.950       .  S
O712        C725   1.245       .  A
O712       Al722   1.888       .  S
Al713       O726   1.977       .  S
Al713       O723   1.986       .  S
Al713       O718   1.808       .  S
O714        C721   1.285       .  A
O714       Al722   1.950       .  S
O715        C724   1.258       .  A
O715       Al722   1.887       .  S
O716       Al722   1.843       .  S
O717        C724   1.256       .  A
O718       Al722   1.739       .  S
O719        C720   1.291       .  A
C720        C747   1.468   1_554  S
C721        C941   1.491       .  S
C724        C857   1.473       .  S
C725        O726   1.266       .  A
C725        C768   1.473       .  S
O727        C742   1.262       .  A
O727       Al735   1.958       .  S
C728        O738   1.277       .  A
C728        O729   1.271       .  A
C728        C992   1.470       .  S
O729       Al731   1.888       .  S
O730        C732   1.272       .  A
O730       Al731   1.915       .  S
Al731       O739   1.902       .  S
Al731       O741   1.876       .  S
Al731       O740   1.755       .  S
C732        O745   1.275       .  A
C732        C952   1.479       .  S
O733        C743   1.250       .  A
O733       Al735   1.951       .  S
O734        C747   1.291       .  A
O734       Al744   1.942       .  S
Al735       O748   1.914       .  S
Al735       O745   1.939       .  S
Al735       O740   1.795       .  S
O736        C743   1.232       .  A
O736       Al744   1.794       .  S
O737        C746   1.246       .  A
O737       Al744   1.916       .  S
O738       Al744   1.943       .  S
O739        C746   1.248       .  A
O740       Al744   1.768       .  S
O741        C742   1.244       .  A
C742        C790   1.474       .  S
C743       C1348   1.469       .  S
C746        C874   1.474       .  S
C747        O748   1.286       .  A
O749        C764   1.282       .  A
O749       Al757   1.879       .  S
C750        O760   1.253       .  A
C750        O751   1.256       .  A
C750        C926   1.426       .  S
O751       Al753   1.873       .  S
O752        C754   1.233       .  A
O752       Al753   1.868       .  S
Al753       O761   1.909       .  S
Al753       O763   1.972       .  S
Al753       O762   1.744       .  S
C754        O767   1.252       .  A
C754       C1293   1.469       .  S
O755        C765   1.285       .  A
O755       Al757   1.950       .  S
O756        C769   1.245       .  A
O756       Al766   1.888       .  S
Al757       O770   1.977       .  S
Al757       O767   1.986       .  S
Al757       O762   1.808       .  S
O758        C765   1.285       .  A
O758       Al766   1.950       .  S
O759        C768   1.258       .  A
O759       Al766   1.887       .  S
O760       Al766   1.843       .  S
O761        C768   1.256       .  A
O762       Al766   1.739       .  S
O763        C764   1.291       .  A
C764        C791   1.467   1_554  S
C765        C897   1.491       .  S
C769        O770   1.266       .  A
C769        C812   1.473       .  S
O771        C786   1.262       .  A
O771       Al779   1.958       .  S
C772        O782   1.277       .  A
C772        O773   1.271       .  A
C772        C948   1.470       .  S
O773       Al775   1.888       .  S
O774        C776   1.272       .  A
O774       Al775   1.915       .  S
Al775       O783   1.902       .  S
Al775       O785   1.876       .  S
Al775       O784   1.755       .  S
C776        O789   1.275       .  A
C776        C908   1.479       .  S
O777        C787   1.250       .  A
O777       Al779   1.951       .  S
O778        C791   1.291       .  A
O778       Al788   1.942       .  S
Al779       O792   1.914       .  S
Al779       O789   1.939       .  S
Al779       O784   1.795       .  S
O780        C787   1.232       .  A
O780       Al788   1.794       .  S
O781        C790   1.246       .  A
O781       Al788   1.916       .  S
O782       Al788   1.942       .  S
O783        C790   1.248       .  A
O784       Al788   1.768       .  S
O785        C786   1.244       .  A
C786        C834   1.474       .  S
C787       C1304   1.469       .  S
C791        O792   1.286       .  A
O793        C808   1.282       .  A
O793       Al801   1.879       .  S
C794        O804   1.253       .  A
C794        O795   1.256       .  A
C794        C882   1.426       .  S
O795       Al797   1.873       .  S
O796        C798   1.233       .  A
O796       Al797   1.868       .  S
Al797       O805   1.908       .  S
Al797       O807   1.972       .  S
Al797       O806   1.744       .  S
C798        O811   1.252       .  A
C798       C1249   1.469       .  S
O799        C809   1.285       .  A
O799       Al801   1.950       .  S
O800        C813   1.245       .  A
O800       Al810   1.888       .  S
Al801       O814   1.977       .  S
Al801       O811   1.986       .  S
Al801       O806   1.808       .  S
O802        C809   1.285       .  A
O802       Al810   1.950       .  S
O803        C812   1.258       .  A
O803       Al810   1.887       .  S
O804       Al810   1.843       .  S
O805        C812   1.256       .  A
O806       Al810   1.739       .  S
O807        C808   1.291       .  A
C808        C835   1.467   1_554  S
C809       C1029   1.491       .  S
C813        O814   1.266       .  A
C813        C856   1.473       .  S
O815        C830   1.262       .  A
O815       Al823   1.958       .  S
C816        O826   1.277       .  A
C816        O817   1.271       .  A
C816        C904   1.470       .  S
O817       Al819   1.888       .  S
O818        C820   1.272       .  A
O818       Al819   1.915       .  S
Al819       O827   1.902       .  S
Al819       O829   1.876       .  S
Al819       O828   1.755       .  S
C820        O833   1.275       .  A
C820       C1040   1.479       .  S
O821        C831   1.250       .  A
O821       Al823   1.951       .  S
O822        C835   1.291       .  A
O822       Al832   1.942       .  S
Al823       O836   1.914       .  S
Al823       O833   1.938       .  S
Al823       O828   1.795       .  S
O824        C831   1.232       .  A
O824       Al832   1.794       .  S
O825        C834   1.246       .  A
O825       Al832   1.916       .  S
O826       Al832   1.943       .  S
O827        C834   1.248       .  A
O828       Al832   1.768       .  S
O829        C830   1.244       .  A
C830        C878   1.474       .  S
C831       C1260   1.469       .  S
C835        O836   1.286       .  A
O837        C852   1.282       .  A
O837       Al845   1.879       .  S
C838        O848   1.253       .  A
C838        O839   1.256       .  A
C838       C1014   1.426       .  S
O839       Al841   1.873       .  S
O840        C842   1.233       .  A
O840       Al841   1.868       .  S
Al841       O849   1.909       .  S
Al841       O851   1.972       .  S
Al841       O850   1.744       .  S
C842        O855   1.252       .  A
C842       C1381   1.469       .  S
O843        C853   1.285       .  A
O843       Al845   1.950       .  S
O844        C857   1.245       .  A
O844       Al854   1.888       .  S
Al845       O858   1.977       .  S
Al845       O855   1.986       .  S
Al845       O850   1.808       .  S
O846        C853   1.285       .  A
O846       Al854   1.950       .  S
O847        C856   1.258       .  A
O847       Al854   1.887       .  S
O848       Al854   1.843       .  S
O849        C856   1.256       .  A
O850       Al854   1.739       .  S
O851        C852   1.291       .  A
C852        C879   1.467   1_554  S
C853        C985   1.491       .  S
C857        O858   1.266       .  A
O859        C874   1.262       .  A
O859       Al867   1.958       .  S
C860        O870   1.277       .  A
C860        O861   1.271       .  A
C860       C1036   1.470       .  S
O861       Al863   1.888       .  S
O862        C864   1.272       .  A
O862       Al863   1.915       .  S
Al863       O871   1.902       .  S
Al863       O873   1.876       .  S
Al863       O872   1.755       .  S
C864        O877   1.275       .  A
C864        C996   1.479       .  S
O865        C875   1.250       .  A
O865       Al867   1.951       .  S
O866        C879   1.291       .  A
O866       Al876   1.942       .  S
Al867       O880   1.914       .  S
Al867       O877   1.939       .  S
Al867       O872   1.795       .  S
O868        C875   1.232       .  A
O868       Al876   1.794       .  S
O869        C878   1.246       .  A
O869       Al876   1.916       .  S
O870       Al876   1.943       .  S
O871        C878   1.248       .  A
O872       Al876   1.768       .  S
O873        C874   1.244       .  A
C875       C1392   1.469       .  S
C879        O880   1.286       .  A
O881        C896   1.281       .  A
O881       Al889   1.879       .  S
C882        O892   1.253       .  A
C882        O883   1.256       .  A
O883       Al885   1.873       .  S
O884        C886   1.233       .  A
O884       Al885   1.868       .  S
Al885       O893   1.908       .  S
Al885       O895   1.972       .  S
Al885       O894   1.744       .  S
C886        O899   1.252       .  A
C886       C1095   1.469       .  S
O887        C897   1.285       .  A
O887       Al889   1.950       .  S
O888        C901   1.245       .  A
O888       Al898   1.888       .  S
Al889       O902   1.977       .  S
Al889       O899   1.986       .  S
Al889       O894   1.808       .  S
O890        C897   1.285       .  A
O890       Al898   1.950       .  S
O891        C900   1.258       .  A
O891       Al898   1.887       .  S
O892       Al898   1.843       .  S
O893        C900   1.256       .  A
O894       Al898   1.739       .  S
O895        C896   1.291       .  A
C896        C923   1.467       .  S
C900       C1033   1.473       .  S
C901        O902   1.266       .  A
C901        C944   1.473       .  S
O903        C918   1.262       .  A
O903       Al911   1.958       .  S
C904        O914   1.277       .  A
C904        O905   1.271       .  A
O905       Al907   1.888       .  S
O906        C908   1.272       .  A
O906       Al907   1.915       .  S
Al907       O915   1.902       .  S
Al907       O917   1.876       .  S
Al907       O916   1.755       .  S
C908        O921   1.275       .  A
O909        C919   1.250       .  A
O909       Al911   1.951       .  S
O910        C923   1.291       .  A
O910       Al920   1.942       .  S
Al911       O924   1.914       .  S
Al911       O921   1.939       .  S
Al911       O916   1.795       .  S
O912        C919   1.232       .  A
O912       Al920   1.794       .  S
O913        C922   1.246       .  A
O913       Al920   1.916       .  S
O914       Al920   1.943       .  S
O915        C922   1.248       .  A
O916       Al920   1.768       .  S
O917        C918   1.244       .  A
C918        C966   1.474       .  S
C919       C1062   1.469       .  S
C922       C1050   1.474       .  S
C923        O924   1.286       .  A
O925        C940   1.281       .  A
O925       Al933   1.879       .  S
C926        O936   1.253       .  A
C926        O927   1.256       .  A
O927       Al929   1.873       .  S
O928        C930   1.233       .  A
O928       Al929   1.868       .  S
Al929       O937   1.908       .  S
Al929       O939   1.972       .  S
Al929       O938   1.744       .  S
C930        O943   1.252       .  A
C930       C1183   1.469       .  S
O931        C941   1.285       .  A
O931       Al933   1.950       .  S
O932        C945   1.245       .  A
O932       Al942   1.888       .  S
Al933       O946   1.977       .  S
Al933       O943   1.986       .  S
Al933       O938   1.808       .  S
O934        C941   1.285       .  A
O934       Al942   1.950       .  S
O935        C944   1.258       .  A
O935       Al942   1.887       .  S
O936       Al942   1.843       .  S
O937        C944   1.256       .  A
O938       Al942   1.739       .  S
O939        C940   1.291       .  A
C940        C967   1.467       .  S
C945        O946   1.266       .  A
C945        C988   1.473       .  S
O947        C962   1.262       .  A
O947       Al955   1.958       .  S
C948        O958   1.277       .  A
C948        O949   1.271       .  A
O949       Al951   1.888       .  S
O950        C952   1.272       .  A
O950       Al951   1.915       .  S
Al951       O959   1.902       .  S
Al951       O961   1.876       .  S
Al951       O960   1.755       .  S
C952        O965   1.275       .  A
O953        C963   1.250       .  A
O953       Al955   1.951       .  S
O954        C967   1.291       .  A
O954       Al964   1.942       .  S
Al955       O968   1.914       .  S
Al955       O965   1.939       .  S
Al955       O960   1.795       .  S
O956        C963   1.232       .  A
O956       Al964   1.794       .  S
O957        C966   1.246       .  A
O957       Al964   1.916       .  S
O958       Al964   1.942       .  S
O959        C966   1.248       .  A
O960       Al964   1.768       .  S
O961        C962   1.244       .  A
C962       C1010   1.474       .  S
C963       C1150   1.469       .  S
C967        O968   1.286       .  A
O969        C984   1.282       .  A
O969       Al977   1.879       .  S
C970        O980   1.253       .  A
C970        O971   1.256       .  A
O971       Al973   1.873       .  S
O972        C974   1.233       .  A
O972       Al973   1.868       .  S
Al973       O981   1.908       .  S
Al973       O983   1.972       .  S
Al973       O982   1.744       .  S
C974        O987   1.252       .  A
C974       C1139   1.469       .  S
O975        C985   1.285       .  A
O975       Al977   1.950       .  S
O976        C989   1.245       .  A
O976       Al986   1.888       .  S
Al977       O990   1.977       .  S
Al977       O987   1.986       .  S
Al977       O982   1.808       .  S
O978        C985   1.285       .  A
O978       Al986   1.950       .  S
O979        C988   1.258       .  A
O979       Al986   1.887       .  S
O980       Al986   1.843       .  S
O981        C988   1.256       .  A
O982       Al986   1.739       .  S
O983        C984   1.291       .  A
C984       C1011   1.467       .  S
C989        O990   1.266       .  A
C989       C1032   1.473       .  S
O991       C1006   1.262       .  A
O991       Al999   1.958       .  S
C992       O1002   1.277       .  A
C992        O993   1.271       .  A
O993       Al995   1.888       .  S
O994        C996   1.272       .  A
O994       Al995   1.915       .  S
Al995      O1003   1.902       .  S
Al995      O1005   1.876       .  S
Al995      O1004   1.755       .  S
C996       O1009   1.275       .  A
O997       C1007   1.250       .  A
O997       Al999   1.951       .  S
O998       C1011   1.291       .  A
O998      Al1008   1.942       .  S
Al999      O1012   1.914       .  S
Al999      O1009   1.939       .  S
Al999      O1004   1.795       .  S
O1000      C1007   1.232       .  A
O1000     Al1008   1.794       .  S
O1001      C1010   1.246       .  A
O1001     Al1008   1.916       .  S
O1002     Al1008   1.943       .  S
O1003      C1010   1.248       .  A
O1004     Al1008   1.768       .  S
O1005      C1006   1.244       .  A
C1006      C1054   1.474       .  S
C1007      C1106   1.469       .  S
C1011      O1012   1.286       .  A
O1013      C1028   1.281       .  A
O1013     Al1021   1.879       .  S
C1014      O1024   1.253       .  A
C1014      O1015   1.256       .  A
O1015     Al1017   1.873       .  S
O1016      C1018   1.233       .  A
O1016     Al1017   1.868       .  S
Al1017     O1025   1.908       .  S
Al1017     O1027   1.972       .  S
Al1017     O1026   1.744       .  S
C1018      O1031   1.252       .  A
C1018      C1227   1.469       .  S
O1019      C1029   1.285       .  A
O1019     Al1021   1.950       .  S
O1020      C1033   1.245       .  A
O1020     Al1030   1.888       .  S
Al1021     O1034   1.977       .  S
Al1021     O1031   1.986       .  S
Al1021     O1026   1.808       .  S
O1022      C1029   1.285       .  A
O1022     Al1030   1.950       .  S
O1023      C1032   1.258       .  A
O1023     Al1030   1.887       .  S
O1024     Al1030   1.843       .  S
O1025      C1032   1.256       .  A
O1026     Al1030   1.739       .  S
O1027      C1028   1.291       .  A
C1028      C1055   1.467       .  S
C1033      O1034   1.266       .  A
O1035      C1050   1.262       .  A
O1035     Al1043   1.958       .  S
C1036      O1046   1.277       .  A
C1036      O1037   1.271       .  A
O1037     Al1039   1.888       .  S
O1038      C1040   1.272       .  A
O1038     Al1039   1.915       .  S
Al1039     O1047   1.902       .  S
Al1039     O1049   1.876       .  S
Al1039     O1048   1.755       .  S
C1040      O1053   1.275       .  A
O1041      C1051   1.250       .  A
O1041     Al1043   1.951       .  S
O1042      C1055   1.291       .  A
O1042     Al1052   1.942       .  S
Al1043     O1056   1.914       .  S
Al1043     O1053   1.939       .  S
Al1043     O1048   1.795       .  S
O1044      C1051   1.232       .  A
O1044     Al1052   1.794       .  S
O1045      C1054   1.246       .  A
O1045     Al1052   1.916       .  S
O1046     Al1052   1.942       .  S
O1047      C1054   1.248       .  A
O1048     Al1052   1.768       .  S
O1049      C1050   1.244       .  A
C1051      C1194   1.469       .  S
C1055      O1056   1.286       .  A
O1057      C1072   1.282       .  A
O1057     Al1065   1.879       .  S
C1058      O1068   1.253       .  A
C1058      O1059   1.256       .  A
C1058      C1256   1.426       .  S
O1059     Al1061   1.873       .  S
O1060      C1062   1.233       .  A
O1060     Al1061   1.868       .  S
Al1061     O1069   1.908       .  S
Al1061     O1071   1.972       .  S
Al1061     O1070   1.744       .  S
C1062      O1075   1.252       .  A
O1063      C1073   1.285       .  A
O1063     Al1065   1.950       .  S
O1064      C1077   1.245       .  A
O1064     Al2482   1.888   1_455  S
Al1065     O2486   1.977       .  S
Al1065     O1075   1.986       .  S
Al1065     O1070   1.808       .  S
O1066      C1073   1.285       .  A
O1066     Al1074   1.950       .  S
O1067      C1076   1.258       .  A
O1067     Al1074   1.887       .  S
O1068     Al1074   1.843       .  S
O1069      C1076   1.256       .  A
O1070     Al1074   1.739       .  S
O1071      C1072   1.291       .  A
C1072      C1099   1.467       .  S
C1073      C2811   1.491       .  S
Al1074     O2472   1.888       .  S
C1076      C1165   1.473       .  S
C1077      O1078   1.266       .  A
C1077      C1208   1.473       .  S
O1078     Al2473   1.977   1_455  S
O1079      C1094   1.262       .  A
O1079     Al2495   1.958   1_455  S
C1080      O1090   1.277       .  A
C1080      O1081   1.271       .  A
C1080      C1234   1.470       .  S
O1081     Al1083   1.888       .  S
O1082      C1084   1.272       .  A
O1082     Al1083   1.915       .  S
Al1083     O1091   1.902       .  S
Al1083     O2501   1.876       .  S
Al1083     O1092   1.755       .  S
C1084      O1097   1.275       .  A
C1084      C2778   1.479       .  S
O1085      C1095   1.250       .  A
O1085     Al1087   1.951       .  S
O1086      C1099   1.291       .  A
O1086     Al1096   1.942       .  S
Al1087     O2487   1.958       .  S
Al1087     O1100   1.914       .  S
Al1087     O1097   1.938       .  S
Al1087     O1092   1.795       .  S
O1088      C1095   1.232       .  A
O1088     Al1096   1.794       .  S
O1089      C1098   1.246       .  A
O1089     Al1096   1.916       .  S
O1090     Al1096   1.942       .  S
O1091      C1098   1.248       .  A
O1092     Al1096   1.768       .  S
O1093      C1094   1.244   1_655  A
O1093     Al2491   1.876       .  S
C1094      C1230   1.474       .  S
C1098      C1182   1.474       .  S
C1099      O1100   1.286       .  A
O1101      C1116   1.281       .  A
O1101     Al1109   1.879       .  S
C1102      O1112   1.253       .  A
C1102      O1103   1.256       .  A
C1102      C1344   1.426       .  S
O1103     Al1105   1.873       .  S
O1104      C1106   1.233       .  A
O1104     Al1105   1.868       .  S
Al1105     O1113   1.908       .  S
Al1105     O1115   1.972       .  S
Al1105     O1114   1.744       .  S
C1106      O1119   1.252       .  A
O1107      C1117   1.285       .  A
O1107     Al1109   1.950       .  S
O1108      C2529   1.245   1_455  A
O1108     Al1118   1.888       .  S
Al1109     O2530   1.977   1_455  S
Al1109     O1119   1.986       .  S
Al1109     O1114   1.808       .  S
O1110      C1117   1.285       .  A
O1110     Al1118   1.950       .  S
O1111      C1120   1.258       .  A
O1111     Al1118   1.887       .  S
O1112     Al1118   1.843       .  S
O1113      C1120   1.256       .  A
O1114     Al1118   1.739       .  S
O1115      C1116   1.291       .  A
C1116      C1143   1.467       .  S
C1117      C2723   1.491       .  S
C1120      C1209   1.473       .  S
C1121      O2516   1.245       .  A
C1121      O1122   1.266       .  A
C1121      C1164   1.473       .  S
O1122     Al2517   1.977       .  S
O1123      C1138   1.262       .  A
O1123     Al2539   1.958       .  S
C1124      O1134   1.277       .  A
C1124      O1125   1.271       .  A
C1124      C1322   1.470       .  S
O1125     Al1127   1.888       .  S
O1126      C1128   1.272       .  A
O1126     Al1127   1.915       .  S
Al1127     O1135   1.902       .  S
Al1127     O2545   1.876       .  S
Al1127     O1136   1.755       .  S
C1128      O1141   1.275       .  A
C1128      C2690   1.479   1_455  S
O1129      C1139   1.250       .  A
O1129     Al1131   1.951       .  S
O1130      C1143   1.291       .  A
O1130     Al1140   1.942       .  S
Al1131     O2531   1.958   1_455  S
Al1131     O1144   1.914       .  S
Al1131     O1141   1.939       .  S
Al1131     O1136   1.795       .  S
O1132      C1139   1.232       .  A
O1132     Al1140   1.794       .  S
O1133      C1142   1.246       .  A
O1133     Al1140   1.916       .  S
O1134     Al1140   1.942       .  S
O1135      C1142   1.248       .  A
O1136     Al1140   1.768       .  S
O1137      C1138   1.244       .  A
O1137     Al2535   1.876       .  S
C1138      C1186   1.474       .  S
C1142      C1226   1.474       .  S
C1143      O1144   1.286       .  A
O1145      C1160   1.282       .  A
O1145     Al1153   1.879       .  S
C1146      O1156   1.253       .  A
C1146      O1147   1.256       .  A
C1146      C1300   1.426       .  S
O1147     Al1149   1.873       .  S
O1148      C1150   1.233       .  A
O1148     Al1149   1.868       .  S
Al1149     O1157   1.908       .  S
Al1149     O1159   1.972       .  S
Al1149     O1158   1.744       .  S
C1150      O1163   1.252       .  A
O1151      C1161   1.285       .  A
O1151     Al1153   1.950       .  S
O1152     Al1162   1.888       .  S
Al1153     O1163   1.986       .  S
Al1153     O1158   1.808       .  S
O1154      C1161   1.285       .  A
O1154     Al1162   1.950       .  S
O1155      C1164   1.258       .  A
O1155     Al1162   1.887       .  S
O1156     Al1162   1.843       .  S
O1157      C1164   1.256       .  A
O1158     Al1162   1.739       .  S
O1159      C1160   1.291       .  A
C1160      C1187   1.467       .  S
C1165      O1166   1.266       .  A
O1167      C1182   1.262       .  A
C1168      O1178   1.277       .  A
C1168      O1169   1.271       .  A
C1168      C1278   1.470       .  S
O1169     Al1171   1.888       .  S
O1170      C1172   1.272       .  A
O1170     Al1171   1.915       .  S
Al1171     O1179   1.902       .  S
Al1171     O1181   1.876       .  S
Al1171     O1180   1.754       .  S
C1172      O1185   1.275       .  A
O1173      C1183   1.250       .  A
O1173     Al1175   1.951       .  S
O1174      C1187   1.291       .  A
O1174     Al1184   1.942       .  S
Al1175     O1188   1.914       .  S
Al1175     O1185   1.939       .  S
Al1175     O1180   1.795       .  S
O1176      C1183   1.232       .  A
O1176     Al1184   1.794       .  S
O1177      C1186   1.246       .  A
O1177     Al1184   1.916       .  S
O1178     Al1184   1.943       .  S
O1179      C1186   1.248       .  A
O1180     Al1184   1.768       .  S
C1187      O1188   1.286       .  A
O1189      C1204   1.282       .  A
O1189     Al1197   1.879       .  S
C1190      O1200   1.253       .  A
C1190      O1191   1.256       .  A
C1190      C1388   1.426       .  S
O1191     Al1193   1.873       .  S
O1192      C1194   1.233       .  A
O1192     Al1193   1.868       .  S
Al1193     O1201   1.908       .  S
Al1193     O1203   1.972       .  S
Al1193     O1202   1.744       .  S
C1194      O1207   1.252       .  A
O1195      C1205   1.285       .  A
O1195     Al1197   1.950       .  S
O1196      C1209   1.245       .  A
Al1197     O1207   1.986       .  S
Al1197     O1202   1.808       .  S
O1198      C1205   1.285       .  A
O1198     Al1206   1.950       .  S
O1199      C1208   1.258       .  A
O1199     Al1206   1.887       .  S
O1200     Al1206   1.843       .  S
O1201      C1208   1.256       .  A
O1202     Al1206   1.739       .  S
O1203      C1204   1.291       .  A
C1204      C1231   1.468       .  S
C1209      O1210   1.266       .  A
O1211      C1226   1.262       .  A
C1212      O1222   1.277       .  A
C1212      O1213   1.271       .  A
C1212      C1366   1.470       .  S
O1213     Al1215   1.888       .  S
O1214      C1216   1.272       .  A
O1214     Al1215   1.915       .  S
Al1215     O1223   1.902       .  S
Al1215     O1224   1.755       .  S
C1216      O1229   1.275       .  A
O1217      C1227   1.250       .  A
O1217     Al1219   1.951       .  S
O1218      C1231   1.291       .  A
O1218     Al1228   1.942       .  S
Al1219     O1232   1.914       .  S
Al1219     O1229   1.939       .  S
Al1219     O1224   1.795       .  S
O1220      C1227   1.232       .  A
O1220     Al1228   1.794       .  S
O1221      C1230   1.246       .  A
O1221     Al1228   1.916       .  S
O1222     Al1228   1.943       .  S
O1223      C1230   1.248       .  A
O1224     Al1228   1.768       .  S
O1225      C1226   1.244       .  A
C1231      O1232   1.286       .  A
O1233      C1248   1.262       .  A
C1234      O1244   1.277       .  A
C1234      O1235   1.271       .  A
O1235     Al1237   1.888       .  S
O1236      C1238   1.272       .  A
O1236     Al1237   1.915       .  S
Al1237     O1245   1.902       .  S
Al1237     O1246   1.755       .  S
C1238      O1251   1.275       .  A
O1239      C1249   1.250       .  A
O1239     Al1241   1.951       .  S
O1240      C1253   1.291       .  A
O1240     Al1250   1.942       .  S
Al1241     O1254   1.914       .  S
Al1241     O1251   1.939       .  S
Al1241     O1246   1.795       .  S
O1242      C1249   1.232       .  A
O1242     Al1250   1.794       .  S
O1243      C1252   1.246       .  A
O1243     Al1250   1.916       .  S
O1244     Al1250   1.942       .  S
O1245      C1252   1.248       .  A
O1246     Al1250   1.768       .  S
O1247      C1248   1.244       .  A
C1248      C1296   1.474       .  S
C1252      C1380   1.474       .  S
C1253      O1254   1.286       .  A
C1253      C1270   1.468   1_554  S
O1255      C1270   1.282       .  A
O1255     Al1263   1.879       .  S
C1256      O1266   1.253       .  A
C1256      O1257   1.256       .  A
O1257     Al1259   1.873       .  S
O1258      C1260   1.233       .  A
O1258     Al1259   1.868       .  S
Al1259     O1267   1.909       .  S
Al1259     O1269   1.972       .  S
Al1259     O1268   1.744       .  S
C1260      O1273   1.252       .  A
O1261      C1271   1.285       .  A
O1261     Al1263   1.950       .  S
O1262      C1275   1.245       .  A
Al1263     O1273   1.986       .  S
Al1263     O1268   1.808       .  S
O1264      C1271   1.285       .  A
O1264     Al1272   1.950       .  S
O1265      C1274   1.258       .  A
O1265     Al1272   1.887       .  S
O1266     Al1272   1.843       .  S
O1267      C1274   1.256       .  A
O1268     Al1272   1.739       .  S
O1269      C1270   1.291       .  A
C1274      C1407   1.473       .  S
C1275      O1276   1.266       .  A
C1275      C1318   1.473       .  S
O1277      C1292   1.262       .  A
O1277     Al2693   1.958   1_455  S
C1278      O1288   1.277       .  A
C1278      O1279   1.271       .  A
O1279     Al1281   1.888       .  S
O1280      C1282   1.272       .  A
O1280     Al1281   1.915       .  S
Al1281     O1289   1.902       .  S
Al1281     O2699   1.876       .  S
Al1281     O1290   1.755       .  S
C1282      O1295   1.275       .  A
C1282      C2536   1.479       .  S
O1283      C1293   1.250       .  A
O1283     Al1285   1.951       .  S
O1284      C1297   1.291       .  A
O1284     Al1294   1.942       .  S
Al1285     O2685   1.958       .  S
Al1285     O1298   1.914       .  S
Al1285     O1295   1.939       .  S
Al1285     O1290   1.795       .  S
O1286      C1293   1.232       .  A
O1286     Al1294   1.794       .  S
O1287      C1296   1.246       .  A
O1287     Al1294   1.916       .  S
O1288     Al1294   1.943       .  S
O1289      C1296   1.248       .  A
O1290     Al1294   1.768       .  S
O1291      C1292   1.244   1_655  A
O1291     Al2689   1.876       .  S
C1292      C1340   1.474       .  S
C1297      O1298   1.286       .  A
C1297      C1314   1.467   1_554  S
O1299      C1314   1.281       .  A
O1299     Al1307   1.879       .  S
C1300      O1310   1.253       .  A
C1300      O1301   1.256       .  A
O1301     Al1303   1.873       .  S
O1302      C1304   1.233       .  A
O1302     Al1303   1.868       .  S
Al1303     O1311   1.908       .  S
Al1303     O1313   1.972       .  S
Al1303     O1312   1.744       .  S
C1304      O1317   1.252       .  A
O1305      C1315   1.285       .  A
O1305     Al1307   1.950       .  S
O1306      C1319   1.245       .  A
O1306     Al2724   1.888   1_455  S
Al1307     O2728   1.977       .  S
Al1307     O1317   1.986       .  S
Al1307     O1312   1.808       .  S
O1308      C1315   1.285       .  A
O1308     Al1316   1.950       .  S
O1309      C1318   1.258       .  A
O1309     Al1316   1.887       .  S
O1310     Al1316   1.843       .  S
O1311      C1318   1.256       .  A
O1312     Al1316   1.739       .  S
O1313      C1314   1.291       .  A
C1315      C2525   1.491       .  S
Al1316     O2714   1.888       .  S
C1319      O1320   1.266       .  A
C1319      C1362   1.473       .  S
O1320     Al2715   1.977   1_455  S
O1321      C1336   1.262       .  A
C1322      O1332   1.277       .  A
C1322      O1323   1.271       .  A
O1323     Al1325   1.888       .  S
O1324      C1326   1.272       .  A
O1324     Al1325   1.915       .  S
Al1325     O1333   1.902       .  S
Al1325     O1335   1.876       .  S
Al1325     O1334   1.755       .  S
C1326      O1339   1.275       .  A
O1327      C1337   1.250       .  A
O1327     Al1329   1.951       .  S
O1328      C1341   1.291       .  A
O1328     Al1338   1.942       .  S
Al1329     O1342   1.914       .  S
Al1329     O1339   1.939       .  S
Al1329     O1334   1.795       .  S
O1330      C1337   1.232       .  A
O1330     Al1338   1.794       .  S
O1331      C1340   1.246       .  A
O1331     Al1338   1.916       .  S
O1332     Al1338   1.943       .  S
O1333      C1340   1.248       .  A
O1334     Al1338   1.768       .  S
C1336      C1384   1.474       .  S
C1341      O1342   1.286       .  A
C1341      C1358   1.467   1_554  S
O1343      C1358   1.282       .  A
O1343     Al1351   1.879       .  S
C1344      O1354   1.253       .  A
C1344      O1345   1.256       .  A
O1345     Al1347   1.873       .  S
O1346      C1348   1.233       .  A
O1346     Al1347   1.868       .  S
Al1347     O1355   1.909       .  S
Al1347     O1357   1.972       .  S
Al1347     O1356   1.744       .  S
C1348      O1361   1.252       .  A
O1349      C1359   1.285       .  A
O1349     Al1351   1.950       .  S
O1350     Al1360   1.888       .  S
Al1351     O1361   1.986       .  S
Al1351     O1356   1.808       .  S
O1352      C1359   1.285       .  A
O1352     Al1360   1.950       .  S
O1353      C1362   1.258       .  A
O1353     Al1360   1.887       .  S
O1354     Al1360   1.843       .  S
O1355      C1362   1.256       .  A
O1356     Al1360   1.739       .  S
O1357      C1358   1.291       .  A
C1363      O1364   1.266       .  A
C1363      C1406   1.473       .  S
O1365      C1380   1.262       .  A
O1365     Al2781   1.958       .  S
C1366      O1376   1.277       .  A
C1366      O1367   1.271       .  A
O1367     Al1369   1.888       .  S
O1368      C1370   1.272       .  A
O1368     Al1369   1.915       .  S
Al1369     O1377   1.902       .  S
Al1369     O2787   1.876       .  S
Al1369     O1378   1.755       .  S
C1370      O1383   1.275       .  A
C1370      C2492   1.479   1_455  S
O1371      C1381   1.250       .  A
O1371     Al1373   1.951       .  S
O1372      C1385   1.291       .  A
O1372     Al1382   1.942       .  S
Al1373     O2773   1.958   1_455  S
Al1373     O1386   1.914       .  S
Al1373     O1383   1.939       .  S
Al1373     O1378   1.795       .  S
O1374      C1381   1.232       .  A
O1374     Al1382   1.794       .  S
O1375      C1384   1.246       .  A
O1375     Al1382   1.916       .  S
O1376     Al1382   1.943       .  S
O1377      C1384   1.248       .  A
O1378     Al1382   1.768       .  S
O1379      C1380   1.244       .  A
O1379     Al2777   1.876       .  S
C1385      O1386   1.286       .  A
C1385      C1402   1.467   1_554  S
O1387      C1402   1.282       .  A
O1387     Al1395   1.879       .  S
C1388      O1398   1.253       .  A
C1388      O1389   1.256       .  A
O1389     Al1391   1.873       .  S
O1390      C1392   1.233       .  A
O1390     Al1391   1.868       .  S
Al1391     O1399   1.908       .  S
Al1391     O1401   1.972       .  S
Al1391     O1400   1.744       .  S
C1392      O1405   1.252       .  A
O1393      C1403   1.285       .  A
O1393     Al1395   1.950       .  S
O1394      C2815   1.245   1_455  A
O1394     Al1404   1.888       .  S
Al1395     O2816   1.977   1_455  S
Al1395     O1405   1.986       .  S
Al1395     O1400   1.808       .  S
O1396      C1403   1.285       .  A
O1396     Al1404   1.950       .  S
O1397      C1406   1.258       .  A
O1397     Al1404   1.887       .  S
O1398     Al1404   1.843       .  S
O1399      C1406   1.256       .  A
O1400     Al1404   1.739       .  S
O1401      C1402   1.291       .  A
C1403      C2481   1.491       .  S
C1407      O2802   1.245       .  A
C1407      O1408   1.266       .  A
O1408     Al2803   1.977       .  S
O1409      C1424   1.281       .  A
O1409     Al1417   1.879       .  S
C1410      O1420   1.253       .  A
C1410      O1411   1.256       .  A
C1410      C1674   1.426       .  S
O1411     Al1413   1.873       .  S
O1412      C1414   1.233       .  A
O1412     Al1413   1.868       .  S
Al1413     O1421   1.908       .  S
Al1413     O1423   1.972       .  S
Al1413     O1422   1.744       .  S
C1414      O1427   1.252       .  A
C1414      C2041   1.469       .  S
O1415      C1425   1.285       .  A
O1415     Al1417   1.950       .  S
O1416      C1429   1.245       .  A
O1416     Al1426   1.888       .  S
Al1417     O1430   1.977       .  S
Al1417     O1427   1.986       .  S
Al1417     O1422   1.808       .  S
O1418      C1425   1.284       .  A
O1418     Al1426   1.950       .  S
O1419      C1428   1.258       .  A
O1419     Al1426   1.887       .  S
O1420     Al1426   1.843       .  S
O1421      C1428   1.256       .  A
O1422     Al1426   1.739       .  S
O1423      C1424   1.291       .  A
C1424      C1451   1.468   1_554  S
C1425      C1645   1.491       .  S
C1428      C1561   1.473       .  S
C1429      O1430   1.266       .  A
C1429      C1472   1.473       .  S
O1431      C1446   1.262       .  A
O1431     Al1439   1.958       .  S
C1432      O1442   1.277       .  A
C1432      O1433   1.271       .  A
C1432      C1696   1.470       .  S
O1433     Al1435   1.888       .  S
O1434      C1436   1.272       .  A
O1434     Al1435   1.915       .  S
Al1435     O1443   1.902       .  S
Al1435     O1445   1.876       .  S
Al1435     O1444   1.755       .  S
C1436      O1449   1.275       .  A
C1436      C1656   1.479       .  S
O1437      C1447   1.250       .  A
O1437     Al1439   1.951       .  S
O1438      C1451   1.291       .  A
O1438     Al1448   1.942       .  S
Al1439     O1452   1.914       .  S
Al1439     O1449   1.939       .  S
Al1439     O1444   1.795       .  S
O1440      C1447   1.232       .  A
O1440     Al1448   1.794       .  S
O1441      C1450   1.246       .  A
O1441     Al1448   1.916       .  S
O1442     Al1448   1.943       .  S
O1443      C1450   1.248       .  A
O1444     Al1448   1.768       .  S
O1445      C1446   1.244       .  A
C1446      C1494   1.474       .  S
C1447      C2052   1.469       .  S
C1450      C1578   1.474       .  S
C1451      O1452   1.286       .  A
O1453      C1468   1.282       .  A
O1453     Al1461   1.879       .  S
C1454      O1464   1.253       .  A
C1454      O1455   1.256       .  A
C1454      C1630   1.426       .  S
O1455     Al1457   1.873       .  S
O1456      C1458   1.233       .  A
O1456     Al1457   1.868       .  S
Al1457     O1465   1.909       .  S
Al1457     O1467   1.972       .  S
Al1457     O1466   1.744       .  S
C1458      O1471   1.252       .  A
C1458      C1997   1.469       .  S
O1459      C1469   1.285       .  A
O1459     Al1461   1.950       .  S
O1460      C1473   1.245       .  A
O1460     Al1470   1.888       .  S
Al1461     O1474   1.977       .  S
Al1461     O1471   1.986       .  S
Al1461     O1466   1.808       .  S
O1462      C1469   1.285       .  A
O1462     Al1470   1.950       .  S
O1463      C1472   1.258       .  A
O1463     Al1470   1.887       .  S
O1464     Al1470   1.843       .  S
O1465      C1472   1.256       .  A
O1466     Al1470   1.739       .  S
O1467      C1468   1.291       .  A
C1468      C1495   1.467   1_554  S
C1469      C1601   1.491       .  S
C1473      O1474   1.266       .  A
C1473      C1516   1.473       .  S
O1475      C1490   1.262       .  A
O1475     Al1483   1.958       .  S
C1476      O1486   1.277       .  A
C1476      O1477   1.271       .  A
C1476      C1652   1.470       .  S
O1477     Al1479   1.888       .  S
O1478      C1480   1.272       .  A
O1478     Al1479   1.915       .  S
Al1479     O1487   1.902       .  S
Al1479     O1489   1.876       .  S
Al1479     O1488   1.755       .  S
C1480      O1493   1.275       .  A
C1480      C1612   1.479       .  S
O1481      C1491   1.250       .  A
O1481     Al1483   1.951       .  S
O1482      C1495   1.291       .  A
O1482     Al1492   1.942       .  S
Al1483     O1496   1.914       .  S
Al1483     O1493   1.939       .  S
Al1483     O1488   1.795       .  S
O1484      C1491   1.232       .  A
O1484     Al1492   1.794       .  S
O1485      C1494   1.246       .  A
O1485     Al1492   1.916       .  S
O1486     Al1492   1.942       .  S
O1487      C1494   1.248       .  A
O1488     Al1492   1.768       .  S
O1489      C1490   1.244       .  A
C1490      C1538   1.474       .  S
C1491      C2008   1.469       .  S
C1495      O1496   1.286       .  A
O1497      C1512   1.281       .  A
O1497     Al1505   1.879       .  S
C1498      O1508   1.253       .  A
C1498      O1499   1.256       .  A
C1498      C1586   1.426       .  S
O1499     Al1501   1.873       .  S
O1500      C1502   1.233       .  A
O1500     Al1501   1.868       .  S
Al1501     O1509   1.908       .  S
Al1501     O1511   1.972       .  S
Al1501     O1510   1.744       .  S
C1502      O1515   1.252       .  A
C1502      C1953   1.469       .  S
O1503      C1513   1.285       .  A
O1503     Al1505   1.950       .  S
O1504      C1517   1.245       .  A
O1504     Al1514   1.888       .  S
Al1505     O1518   1.977       .  S
Al1505     O1515   1.986       .  S
Al1505     O1510   1.808       .  S
O1506      C1513   1.285       .  A
O1506     Al1514   1.950       .  S
O1507      C1516   1.258       .  A
O1507     Al1514   1.887       .  S
O1508     Al1514   1.843       .  S
O1509      C1516   1.256       .  A
O1510     Al1514   1.739       .  S
O1511      C1512   1.291       .  A
C1512      C1539   1.467   1_554  S
C1513      C1733   1.491       .  S
C1517      O1518   1.266       .  A
C1517      C1560   1.473       .  S
O1519      C1534   1.262       .  A
O1519     Al1527   1.958       .  S
C1520      O1530   1.277       .  A
C1520      O1521   1.271       .  A
C1520      C1608   1.470       .  S
O1521     Al1523   1.888       .  S
O1522      C1524   1.272       .  A
O1522     Al1523   1.915       .  S
Al1523     O1531   1.902       .  S
Al1523     O1533   1.876       .  S
Al1523     O1532   1.755       .  S
C1524      O1537   1.275       .  A
C1524      C1744   1.479       .  S
O1525      C1535   1.250       .  A
O1525     Al1527   1.951       .  S
O1526      C1539   1.291       .  A
O1526     Al1536   1.942       .  S
Al1527     O1540   1.914       .  S
Al1527     O1537   1.938       .  S
Al1527     O1532   1.795       .  S
O1528      C1535   1.232       .  A
O1528     Al1536   1.794       .  S
O1529      C1538   1.246       .  A
O1529     Al1536   1.916       .  S
O1530     Al1536   1.943       .  S
O1531      C1538   1.248       .  A
O1532     Al1536   1.768       .  S
O1533      C1534   1.244       .  A
C1534      C1582   1.474       .  S
C1535      C1964   1.469       .  S
C1539      O1540   1.286       .  A
O1541      C1556   1.282       .  A
O1541     Al1549   1.879       .  S
C1542      O1552   1.253       .  A
C1542      O1543   1.256       .  A
C1542      C1718   1.426       .  S
O1543     Al1545   1.873       .  S
O1544      C1546   1.233       .  A
O1544     Al1545   1.868       .  S
Al1545     O1553   1.909       .  S
Al1545     O1555   1.972       .  S
Al1545     O1554   1.744       .  S
C1546      O1559   1.252       .  A
C1546      C2085   1.469       .  S
O1547      C1557   1.285       .  A
O1547     Al1549   1.950       .  S
O1548      C1561   1.245       .  A
O1548     Al1558   1.888       .  S
Al1549     O1562   1.977       .  S
Al1549     O1559   1.986       .  S
Al1549     O1554   1.808       .  S
O1550      C1557   1.285       .  A
O1550     Al1558   1.950       .  S
O1551      C1560   1.258       .  A
O1551     Al1558   1.887       .  S
O1552     Al1558   1.843       .  S
O1553      C1560   1.256       .  A
O1554     Al1558   1.739       .  S
O1555      C1556   1.291       .  A
C1556      C1583   1.467   1_554  S
C1557      C1689   1.491       .  S
C1561      O1562   1.266       .  A
O1563      C1578   1.262       .  A
O1563     Al1571   1.958       .  S
C1564      O1574   1.277       .  A
C1564      O1565   1.271       .  A
C1564      C1740   1.470       .  S
O1565     Al1567   1.888       .  S
O1566      C1568   1.272       .  A
O1566     Al1567   1.915       .  S
Al1567     O1575   1.902       .  S
Al1567     O1577   1.876       .  S
Al1567     O1576   1.755       .  S
C1568      O1581   1.275       .  A
C1568      C1700   1.479       .  S
O1569      C1579   1.250       .  A
O1569     Al1571   1.951       .  S
O1570      C1583   1.291       .  A
O1570     Al1580   1.942       .  S
Al1571     O1584   1.914       .  S
Al1571     O1581   1.939       .  S
Al1571     O1576   1.795       .  S
O1572      C1579   1.232       .  A
O1572     Al1580   1.794       .  S
O1573      C1582   1.246       .  A
O1573     Al1580   1.916       .  S
O1574     Al1580   1.943       .  S
O1575      C1582   1.248       .  A
O1576     Al1580   1.768       .  S
O1577      C1578   1.244       .  A
C1579      C2096   1.469       .  S
C1583      O1584   1.286       .  A
O1585      C1600   1.282       .  A
O1585     Al1593   1.879       .  S
C1586      O1596   1.253       .  A
C1586      O1587   1.256       .  A
O1587     Al1589   1.873       .  S
O1588      C1590   1.233       .  A
O1588     Al1589   1.868       .  S
Al1589     O1597   1.908       .  S
Al1589     O1599   1.972       .  S
Al1589     O1598   1.744       .  S
C1590      O1603   1.252       .  A
C1590      C1799   1.469       .  S
O1591      C1601   1.285       .  A
O1591     Al1593   1.950       .  S
O1592      C1605   1.245       .  A
O1592     Al1602   1.888       .  S
Al1593     O1606   1.977       .  S
Al1593     O1603   1.986       .  S
Al1593     O1598   1.808       .  S
O1594      C1601   1.285       .  A
O1594     Al1602   1.950       .  S
O1595      C1604   1.258       .  A
O1595     Al1602   1.887       .  S
O1596     Al1602   1.843       .  S
O1597      C1604   1.256       .  A
O1598     Al1602   1.739       .  S
O1599      C1600   1.291       .  A
C1600      C1627   1.468       .  S
C1604      C1737   1.473       .  S
C1605      O1606   1.266       .  A
C1605      C1648   1.473       .  S
O1607      C1622   1.262       .  A
O1607     Al1615   1.958       .  S
C1608      O1618   1.277       .  A
C1608      O1609   1.271       .  A
O1609     Al1611   1.888       .  S
O1610      C1612   1.272       .  A
O1610     Al1611   1.915       .  S
Al1611     O1619   1.902       .  S
Al1611     O1621   1.876       .  S
Al1611     O1620   1.755       .  S
C1612      O1625   1.275       .  A
O1613      C1623   1.250       .  A
O1613     Al1615   1.951       .  S
O1614      C1627   1.291       .  A
O1614     Al1624   1.942       .  S
Al1615     O1628   1.914       .  S
Al1615     O1625   1.939       .  S
Al1615     O1620   1.795       .  S
O1616      C1623   1.232       .  A
O1616     Al1624   1.794       .  S
O1617      C1626   1.246       .  A
O1617     Al1624   1.916       .  S
O1618     Al1624   1.943       .  S
O1619      C1626   1.248       .  A
O1620     Al1624   1.768       .  S
O1621      C1622   1.244       .  A
C1622      C1670   1.474       .  S
C1623      C1766   1.469       .  S
C1626      C1754   1.474       .  S
C1627      O1628   1.286       .  A
O1629      C1644   1.281       .  A
O1629     Al1637   1.879       .  S
C1630      O1640   1.253       .  A
C1630      O1631   1.256       .  A
O1631     Al1633   1.873       .  S
O1632      C1634   1.233       .  A
O1632     Al1633   1.868       .  S
Al1633     O1641   1.908       .  S
Al1633     O1643   1.972       .  S
Al1633     O1642   1.744       .  S
C1634      O1647   1.252       .  A
C1634      C1887   1.469       .  S
O1635      C1645   1.285       .  A
O1635     Al1637   1.950       .  S
O1636      C1649   1.245       .  A
O1636     Al1646   1.888       .  S
Al1637     O1650   1.977       .  S
Al1637     O1647   1.986       .  S
Al1637     O1642   1.808       .  S
O1638      C1645   1.284       .  A
O1638     Al1646   1.950       .  S
O1639      C1648   1.258       .  A
O1639     Al1646   1.887       .  S
O1640     Al1646   1.843       .  S
O1641      C1648   1.256       .  A
O1642     Al1646   1.739       .  S
O1643      C1644   1.291       .  A
C1644      C1671   1.467       .  S
C1649      O1650   1.266       .  A
C1649      C1692   1.473       .  S
O1651      C1666   1.262       .  A
O1651     Al1659   1.958       .  S
C1652      O1662   1.277       .  A
C1652      O1653   1.271       .  A
O1653     Al1655   1.888       .  S
O1654      C1656   1.272       .  A
O1654     Al1655   1.915       .  S
Al1655     O1663   1.902       .  S
Al1655     O1665   1.876       .  S
Al1655     O1664   1.755       .  S
C1656      O1669   1.275       .  A
O1657      C1667   1.250       .  A
O1657     Al1659   1.951       .  S
O1658      C1671   1.291       .  A
O1658     Al1668   1.942       .  S
Al1659     O1672   1.914       .  S
Al1659     O1669   1.939       .  S
Al1659     O1664   1.795       .  S
O1660      C1667   1.232       .  A
O1660     Al1668   1.794       .  S
O1661      C1670   1.246       .  A
O1661     Al1668   1.916       .  S
O1662     Al1668   1.942       .  S
O1663      C1670   1.248       .  A
O1664     Al1668   1.768       .  S
O1665      C1666   1.244       .  A
C1666      C1714   1.474       .  S
C1667      C1854   1.469       .  S
C1671      O1672   1.286       .  A
O1673      C1688   1.282       .  A
O1673     Al1681   1.879       .  S
C1674      O1684   1.253       .  A
C1674      O1675   1.256       .  A
O1675     Al1677   1.873       .  S
O1676      C1678   1.233       .  A
O1676     Al1677   1.868       .  S
Al1677     O1685   1.908       .  S
Al1677     O1687   1.972       .  S
Al1677     O1686   1.744       .  S
C1678      O1691   1.252       .  A
C1678      C1843   1.469       .  S
O1679      C1689   1.285       .  A
O1679     Al1681   1.950       .  S
O1680      C1693   1.245       .  A
O1680     Al1690   1.888       .  S
Al1681     O1694   1.977       .  S
Al1681     O1691   1.986       .  S
Al1681     O1686   1.808       .  S
O1682      C1689   1.285       .  A
O1682     Al1690   1.950       .  S
O1683      C1692   1.258       .  A
O1683     Al1690   1.887       .  S
O1684     Al1690   1.843       .  S
O1685      C1692   1.256       .  A
O1686     Al1690   1.739       .  S
O1687      C1688   1.291       .  A
C1688      C1715   1.467       .  S
C1693      O1694   1.266       .  A
C1693      C1736   1.473       .  S
O1695      C1710   1.262       .  A
O1695     Al1703   1.958       .  S
C1696      O1706   1.277       .  A
C1696      O1697   1.271       .  A
O1697     Al1699   1.888       .  S
O1698      C1700   1.272       .  A
O1698     Al1699   1.915       .  S
Al1699     O1707   1.902       .  S
Al1699     O1709   1.876       .  S
Al1699     O1708   1.755       .  S
C1700      O1713   1.275       .  A
O1701      C1711   1.250       .  A
O1701     Al1703   1.951       .  S
O1702      C1715   1.291       .  A
O1702     Al1712   1.942       .  S
Al1703     O1716   1.914       .  S
Al1703     O1713   1.939       .  S
Al1703     O1708   1.795       .  S
O1704      C1711   1.232       .  A
O1704     Al1712   1.794       .  S
O1705      C1714   1.246       .  A
O1705     Al1712   1.916       .  S
O1706     Al1712   1.943       .  S
O1707      C1714   1.248       .  A
O1708     Al1712   1.768       .  S
O1709      C1710   1.244       .  A
C1710      C1758   1.474       .  S
C1711      C1810   1.469       .  S
C1715      O1716   1.286       .  A
O1717      C1732   1.281       .  A
O1717     Al1725   1.879       .  S
C1718      O1728   1.253       .  A
C1718      O1719   1.256       .  A
O1719     Al1721   1.873       .  S
O1720      C1722   1.233       .  A
O1720     Al1721   1.868       .  S
Al1721     O1729   1.908       .  S
Al1721     O1731   1.972       .  S
Al1721     O1730   1.744       .  S
C1722      O1735   1.252       .  A
C1722      C1931   1.469       .  S
O1723      C1733   1.285       .  A
O1723     Al1725   1.950       .  S
O1724      C1737   1.245       .  A
O1724     Al1734   1.888       .  S
Al1725     O1738   1.977       .  S
Al1725     O1735   1.986       .  S
Al1725     O1730   1.808       .  S
O1726      C1733   1.285       .  A
O1726     Al1734   1.950       .  S
O1727      C1736   1.258       .  A
O1727     Al1734   1.887       .  S
O1728     Al1734   1.843       .  S
O1729      C1736   1.256       .  A
O1730     Al1734   1.739       .  S
O1731      C1732   1.291       .  A
C1732      C1759   1.467       .  S
C1737      O1738   1.266       .  A
O1739      C1754   1.262       .  A
O1739     Al1747   1.958       .  S
C1740      O1750   1.277       .  A
C1740      O1741   1.271       .  A
O1741     Al1743   1.888       .  S
O1742      C1744   1.272       .  A
O1742     Al1743   1.915       .  S
Al1743     O1751   1.902       .  S
Al1743     O1753   1.876       .  S
Al1743     O1752   1.755       .  S
C1744      O1757   1.275       .  A
O1745      C1755   1.250       .  A
O1745     Al1747   1.951       .  S
O1746      C1759   1.291       .  A
O1746     Al1756   1.942       .  S
Al1747     O1760   1.914       .  S
Al1747     O1757   1.938       .  S
Al1747     O1752   1.795       .  S
O1748      C1755   1.232       .  A
O1748     Al1756   1.794       .  S
O1749      C1758   1.246       .  A
O1749     Al1756   1.916       .  S
O1750     Al1756   1.942       .  S
O1751      C1758   1.248       .  A
O1752     Al1756   1.768       .  S
O1753      C1754   1.244       .  A
C1755      C1898   1.469       .  S
C1759      O1760   1.286       .  A
O1761      C1776   1.282       .  A
O1761     Al1769   1.879       .  S
C1762      O1772   1.253       .  A
C1762      O1763   1.256       .  A
C1762      C1960   1.426       .  S
O1763     Al1765   1.873       .  S
O1764      C1766   1.233       .  A
O1764     Al1765   1.868       .  S
Al1765     O1773   1.908       .  S
Al1765     O1775   1.972       .  S
Al1765     O1774   1.744       .  S
C1766      O1779   1.252       .  A
O1767      C1777   1.285   1_655  A
O1767     Al1769   1.950       .  S
O1768      C1781   1.245       .  A
Al1769     O1779   1.986       .  S
Al1769     O1774   1.808       .  S
O1770      C1777   1.284       .  A
O1770     Al1778   1.950   1_455  S
O1771      C1780   1.258       .  A
O1771     Al1778   1.887       .  S
O1772     Al1778   1.843       .  S
O1773      C1780   1.256       .  A
O1774     Al1778   1.739       .  S
O1775      C1776   1.291       .  A
C1776      C1803   1.467       .  S
C1780      C1869   1.473       .  S
C1781      O1782   1.266       .  A
C1781      C1912   1.473       .  S
O1783      C1798   1.262       .  A
C1784      O1794   1.277       .  A
C1784      O1785   1.271       .  A
C1784      C1938   1.470       .  S
O1785     Al1787   1.888       .  S
O1786      C1788   1.272       .  A
O1786     Al1787   1.915       .  S
Al1787     O1795   1.902       .  S
Al1787     O1796   1.755       .  S
C1788      O1801   1.275       .  A
O1789      C1799   1.250       .  A
O1789     Al1791   1.951       .  S
O1790      C1803   1.291       .  A
O1790     Al1800   1.942       .  S
Al1791     O1804   1.914       .  S
Al1791     O1801   1.938       .  S
Al1791     O1796   1.795       .  S
O1792      C1799   1.232       .  A
O1792     Al1800   1.794       .  S
O1793      C1802   1.246       .  A
O1793     Al1800   1.916       .  S
O1794     Al1800   1.942       .  S
O1795      C1802   1.248       .  A
O1796     Al1800   1.768       .  S
O1797      C1798   1.244       .  A
C1798      C1934   1.474       .  S
C1802      C1886   1.474       .  S
C1803      O1804   1.286       .  A
O1805      C1820   1.281       .  A
O1805     Al1813   1.879       .  S
C1806      O1816   1.253       .  A
C1806      O1807   1.256       .  A
C1806      C2048   1.426       .  S
O1807     Al1809   1.873       .  S
O1808      C1810   1.233       .  A
O1808     Al1809   1.868       .  S
Al1809     O1817   1.908       .  S
Al1809     O1819   1.972       .  S
Al1809     O1818   1.744       .  S
C1810      O1823   1.252       .  A
O1811      C1821   1.285       .  A
O1811     Al1813   1.950       .  S
O1812     Al1822   1.888       .  S
Al1813     O1823   1.986       .  S
Al1813     O1818   1.808       .  S
O1814      C1821   1.285       .  A
O1814     Al1822   1.950       .  S
O1815      C1824   1.258       .  A
O1815     Al1822   1.887       .  S
O1816     Al1822   1.843       .  S
O1817      C1824   1.256       .  A
O1818     Al1822   1.739       .  S
O1819      C1820   1.291       .  A
C1820      C1847   1.467       .  S
C1824      C1913   1.473       .  S
C1825      O1826   1.266       .  A
C1825      C1868   1.473       .  S
O1827      C1842   1.262       .  A
C1828      O1838   1.277       .  A
C1828      O1829   1.271       .  A
C1828      C2026   1.470       .  S
O1829     Al1831   1.888       .  S
O1830      C1832   1.272       .  A
O1830     Al1831   1.915       .  S
Al1831     O1839   1.902       .  S
Al1831     O1840   1.755       .  S
C1832      O1845   1.275       .  A
O1833      C1843   1.250       .  A
O1833     Al1835   1.951       .  S
O1834      C1847   1.291       .  A
O1834     Al1844   1.942       .  S
Al1835     O1848   1.914       .  S
Al1835     O1845   1.939       .  S
Al1835     O1840   1.795       .  S
O1836      C1843   1.232       .  A
O1836     Al1844   1.794       .  S
O1837      C1846   1.246       .  A
O1837     Al1844   1.916       .  S
O1838     Al1844   1.942       .  S
O1839      C1846   1.248       .  A
O1840     Al1844   1.768       .  S
O1841      C1842   1.244   1_455  A
C1842      C1890   1.474       .  S
C1846      C1930   1.474       .  S
C1847      O1848   1.286       .  A
O1849      C1864   1.281       .  A
O1849     Al1857   1.879       .  S
C1850      O1860   1.253       .  A
C1850      O1851   1.256       .  A
C1850      C2004   1.426       .  S
O1851     Al1853   1.873       .  S
O1852      C1854   1.233       .  A
O1852     Al1853   1.868       .  S
Al1853     O1861   1.908       .  S
Al1853     O1863   1.972       .  S
Al1853     O1862   1.744       .  S
C1854      O1867   1.252       .  A
O1855      C1865   1.285       .  A
O1855     Al1857   1.950       .  S
O1856      C2573   1.245       .  A
O1856     Al1866   1.888       .  S
Al1857     O2574   1.977       .  S
Al1857     O1867   1.986       .  S
Al1857     O1862   1.808       .  S
O1858      C1865   1.285       .  A
O1858     Al1866   1.950       .  S
O1859      C1868   1.258       .  A
O1859     Al1866   1.887       .  S
O1860     Al1866   1.843       .  S
O1861      C1868   1.256       .  A
O1862     Al1866   1.739       .  S
O1863      C1864   1.291       .  A
C1864      C1891   1.467       .  S
C1865      C2679   1.491       .  S
C1869      O2560   1.245   1_545  A
C1869      O1870   1.266       .  A
O1870     Al2561   1.977   1_545  S
O1871      C1886   1.262       .  A
O1871     Al2583   1.958   1_545  S
C1872      O1882   1.277       .  A
C1872      O1873   1.271       .  A
C1872      C1982   1.470       .  S
O1873     Al1875   1.888       .  S
O1874      C1876   1.272       .  A
O1874     Al1875   1.915       .  S
Al1875     O1883   1.902       .  S
Al1875     O1885   1.876       .  S
Al1875     O1884   1.755       .  S
C1876      O1889   1.275       .  A
C1876      C2646   1.479       .  S
O1877      C1887   1.250       .  A
O1877     Al1879   1.951       .  S
O1878      C1891   1.291       .  A
O1878     Al1888   1.942       .  S
Al1879     O2575   1.958       .  S
Al1879     O1892   1.914       .  S
Al1879     O1889   1.939       .  S
Al1879     O1884   1.795       .  S
O1880      C1887   1.232       .  A
O1880     Al1888   1.794       .  S
O1881      C1890   1.246       .  A
O1881     Al1888   1.916       .  S
O1882     Al1888   1.943       .  S
O1883      C1890   1.248       .  A
O1884     Al1888   1.768       .  S
O1885      C2590   1.244       .  A
C1886      O2589   1.244   1_545  A
C1891      O1892   1.286       .  A
O1893      C1908   1.282       .  A
O1893     Al1901   1.879       .  S
C1894      O1904   1.253       .  A
C1894      O1895   1.256       .  A
C1894      C2092   1.426       .  S
O1895     Al1897   1.873       .  S
O1896      C1898   1.233       .  A
O1896     Al1897   1.868       .  S
Al1897     O1905   1.908       .  S
Al1897     O1907   1.972       .  S
Al1897     O1906   1.744       .  S
C1898      O1911   1.252       .  A
O1899      C1909   1.285   1_545  A
O1899     Al1901   1.950       .  S
O1900      C1913   1.245       .  A
O1900     Al2614   1.888       .  S
Al1901     O2618   1.977   1_545  S
Al1901     O1911   1.986       .  S
Al1901     O1906   1.808       .  S
O1902      C1909   1.285       .  A
O1902     Al1910   1.950   1_565  S
O1903      C1912   1.258       .  A
O1903     Al1910   1.887       .  S
O1904     Al1910   1.843       .  S
O1905      C1912   1.256       .  A
O1906     Al1910   1.739       .  S
O1907      C1908   1.291       .  A
C1908      C1935   1.468       .  S
C1909      C2767   1.491       .  S
Al1910     O2604   1.888   1_545  S
C1913      O1914   1.266       .  A
O1914     Al2605   1.977       .  S
O1915      C1930   1.262       .  A
O1915     Al2627   1.958       .  S
C1916      O1926   1.277       .  A
C1916      O1917   1.271       .  A
C1916      C2070   1.470       .  S
O1917     Al1919   1.888       .  S
O1918      C1920   1.272   1_545  A
O1918     Al1919   1.915       .  S
Al1919     O1927   1.902       .  S
Al1919     O2633   1.876   1_545  S
Al1919     O1928   1.755       .  S
C1920      O1933   1.275   1_565  A
C1920      C2734   1.479       .  S
O1921      C1931   1.250       .  A
O1921     Al1923   1.951       .  S
O1922      C1935   1.291       .  A
O1922     Al1932   1.942       .  S
Al1923     O2619   1.958   1_545  S
Al1923     O1936   1.914       .  S
Al1923     O1933   1.939       .  S
Al1923     O1928   1.795       .  S
O1924      C1931   1.232       .  A
O1924     Al1932   1.794       .  S
O1925      C1934   1.246       .  A
O1925     Al1932   1.916       .  S
O1926     Al1932   1.943       .  S
O1927      C1934   1.248       .  A
O1928     Al1932   1.768       .  S
O1929      C1930   1.244       .  A
O1929     Al2623   1.876       .  S
C1935      O1936   1.286       .  A
O1937      C1952   1.262       .  A
O1937     Al2649   1.958       .  S
C1938      O1948   1.277       .  A
C1938      O1939   1.271       .  A
O1939     Al1941   1.888       .  S
O1940      C1942   1.272   1_545  A
O1940     Al1941   1.915       .  S
Al1941     O1949   1.902       .  S
Al1941     O2655   1.876   1_545  S
Al1941     O1950   1.755       .  S
C1942      O1955   1.275   1_565  A
C1942      C2580   1.479       .  S
O1943      C1953   1.250       .  A
O1943     Al1945   1.951       .  S
O1944      C1957   1.291       .  A
O1944     Al1954   1.942       .  S
Al1945     O2641   1.958   1_545  S
Al1945     O1958   1.914       .  S
Al1945     O1955   1.939       .  S
Al1945     O1950   1.795       .  S
O1946      C1953   1.232       .  A
O1946     Al1954   1.794       .  S
O1947      C1956   1.246       .  A
O1947     Al1954   1.916       .  S
O1948     Al1954   1.942       .  S
O1949      C1956   1.248       .  A
O1950     Al1954   1.768       .  S
O1951      C1952   1.244       .  A
O1951     Al2645   1.876       .  S
C1952      C2000   1.474       .  S
C1956      C2084   1.474       .  S
C1957      O1958   1.286       .  A
C1957      C1974   1.468   1_554  S
O1959      C1974   1.282       .  A
O1959     Al1967   1.879       .  S
C1960      O1970   1.253       .  A
C1960      O1961   1.256       .  A
O1961     Al1963   1.873       .  S
O1962      C1964   1.233       .  A
O1962     Al1963   1.868       .  S
Al1963     O1971   1.909       .  S
Al1963     O1973   1.972       .  S
Al1963     O1972   1.744       .  S
C1964      O1977   1.252       .  A
O1965      C1975   1.285   1_545  A
O1965     Al1967   1.950       .  S
O1966      C1979   1.245       .  A
O1966     Al2680   1.888       .  S
Al1967     O2684   1.977   1_545  S
Al1967     O1977   1.986       .  S
Al1967     O1972   1.808       .  S
O1968      C1975   1.285       .  A
O1968     Al1976   1.950   1_565  S
O1969      C1978   1.258       .  A
O1969     Al1976   1.887       .  S
O1970     Al1976   1.843       .  S
O1971      C1978   1.256       .  A
O1972     Al1976   1.739       .  S
O1973      C1974   1.291       .  A
C1975      C2569   1.491       .  S
Al1976     O2670   1.888   1_545  S
C1978      C2111   1.473       .  S
C1979      O1980   1.266       .  A
C1979      C2022   1.473       .  S
O1980     Al2671   1.977       .  S
O1981      C1996   1.262       .  A
C1982      O1992   1.277       .  A
C1982      O1983   1.271       .  A
O1983     Al1985   1.888       .  S
O1984      C1986   1.272       .  A
O1984     Al1985   1.915       .  S
Al1985     O1993   1.902       .  S
Al1985     O1994   1.755       .  S
C1986      O1999   1.275       .  A
O1987      C1997   1.250       .  A
O1987     Al1989   1.951       .  S
O1988      C2001   1.291       .  A
O1988     Al1998   1.942       .  S
Al1989     O2002   1.914       .  S
Al1989     O1999   1.939       .  S
Al1989     O1994   1.795       .  S
O1990      C1997   1.232       .  A
O1990     Al1998   1.794       .  S
O1991      C2000   1.246       .  A
O1991     Al1998   1.916       .  S
O1992     Al1998   1.943       .  S
O1993      C2000   1.248       .  A
O1994     Al1998   1.768       .  S
O1995      C1996   1.244       .  A
C1996      C2044   1.475       .  S
C2001      O2002   1.286       .  A
C2001      C2018   1.467   1_554  S
O2003      C2018   1.281       .  A
O2003     Al2011   1.879       .  S
C2004      O2014   1.253       .  A
C2004      O2005   1.256       .  A
O2005     Al2007   1.873       .  S
O2006      C2008   1.233       .  A
O2006     Al2007   1.868       .  S
Al2007     O2015   1.908       .  S
Al2007     O2017   1.972       .  S
Al2007     O2016   1.744       .  S
C2008      O2021   1.252       .  A
O2009      C2019   1.285   1_655  A
O2009     Al2011   1.950       .  S
O2010      C2023   1.245       .  A
Al2011     O2021   1.986       .  S
Al2011     O2016   1.808       .  S
O2012      C2019   1.285       .  A
O2012     Al2020   1.950   1_455  S
O2013      C2022   1.258       .  A
O2013     Al2020   1.887       .  S
O2014     Al2020   1.843       .  S
O2015      C2022   1.256       .  A
O2016     Al2020   1.739       .  S
O2017      C2018   1.291       .  A
C2023      O2024   1.266       .  A
C2023      C2066   1.473       .  S
O2025      C2040   1.262       .  A
O2025     Al2737   1.958   1_545  S
C2026      O2036   1.277       .  A
C2026      O2027   1.271       .  A
O2027     Al2029   1.888       .  S
O2028      C2030   1.272       .  A
O2028     Al2029   1.915       .  S
Al2029     O2037   1.902       .  S
Al2029     O2039   1.876       .  S
Al2029     O2038   1.755       .  S
C2030      O2043   1.275       .  A
C2030      C2624   1.479       .  S
O2031      C2041   1.250       .  A
O2031     Al2033   1.951       .  S
O2032      C2045   1.291       .  A
O2032     Al2042   1.942       .  S
Al2033     O2729   1.958       .  S
Al2033     O2046   1.914       .  S
Al2033     O2043   1.939       .  S
Al2033     O2038   1.795       .  S
O2034      C2041   1.232       .  A
O2034     Al2042   1.794       .  S
O2035      C2044   1.246       .  A
O2035     Al2042   1.916       .  S
O2036     Al2042   1.943       .  S
O2037      C2044   1.248       .  A
O2038     Al2042   1.768       .  S
O2039      C2744   1.244       .  A
C2040      O2743   1.244   1_545  A
C2040      C2088   1.474       .  S
C2045      O2046   1.286       .  A
C2045      C2062   1.467   1_554  S
O2047      C2062   1.282       .  A
O2047     Al2055   1.879       .  S
C2048      O2058   1.253       .  A
C2048      O2049   1.256       .  A
O2049     Al2051   1.873       .  S
O2050      C2052   1.233       .  A
O2050     Al2051   1.868       .  S
Al2051     O2059   1.908       .  S
Al2051     O2061   1.972       .  S
Al2051     O2060   1.744       .  S
C2052      O2065   1.252       .  A
O2053      C2063   1.285       .  A
O2053     Al2055   1.950       .  S
O2054      C2771   1.245       .  A
O2054     Al2064   1.888       .  S
Al2055     O2772   1.977       .  S
Al2055     O2065   1.986       .  S
Al2055     O2060   1.808       .  S
O2056      C2063   1.285       .  A
O2056     Al2064   1.950       .  S
O2057      C2066   1.258       .  A
O2057     Al2064   1.887       .  S
O2058     Al2064   1.843       .  S
O2059      C2066   1.256       .  A
O2060     Al2064   1.739       .  S
O2061      C2062   1.291       .  A
C2063      C2613   1.491       .  S
C2067      O2758   1.245   1_545  A
C2067      O2068   1.266       .  A
C2067      C2110   1.473       .  S
O2068     Al2759   1.977   1_545  S
O2069      C2084   1.262       .  A
C2070      O2080   1.277       .  A
C2070      O2071   1.271       .  A
O2071     Al2073   1.888       .  S
O2072      C2074   1.272       .  A
O2072     Al2073   1.915       .  S
Al2073     O2081   1.902       .  S
Al2073     O2082   1.755       .  S
C2074      O2087   1.275       .  A
O2075      C2085   1.250       .  A
O2075     Al2077   1.951       .  S
O2076      C2089   1.291       .  A
O2076     Al2086   1.942       .  S
Al2077     O2090   1.914       .  S
Al2077     O2087   1.939       .  S
Al2077     O2082   1.795       .  S
O2078      C2085   1.232       .  A
O2078     Al2086   1.794       .  S
O2079      C2088   1.246       .  A
O2079     Al2086   1.916       .  S
O2080     Al2086   1.943       .  S
O2081      C2088   1.248       .  A
O2082     Al2086   1.768       .  S
O2083      C2084   1.244   1_455  A
C2089      O2090   1.286       .  A
C2089      C2106   1.467   1_554  S
O2091      C2106   1.282       .  A
O2091     Al2099   1.879       .  S
C2092      O2102   1.253       .  A
C2092      O2093   1.256       .  A
O2093     Al2095   1.873       .  S
O2094      C2096   1.233       .  A
O2094     Al2095   1.868       .  S
Al2095     O2103   1.908       .  S
Al2095     O2105   1.972       .  S
Al2095     O2104   1.744       .  S
C2096      O2109   1.252       .  A
O2097      C2107   1.285       .  A
O2097     Al2099   1.950       .  S
O2098     Al2108   1.888       .  S
Al2099     O2109   1.986       .  S
Al2099     O2104   1.808       .  S
O2100      C2107   1.285       .  A
O2100     Al2108   1.950       .  S
O2101      C2110   1.258       .  A
O2101     Al2108   1.887       .  S
O2102     Al2108   1.843       .  S
O2103      C2110   1.256       .  A
O2104     Al2108   1.739       .  S
O2105      C2106   1.291       .  A
C2111      O2112   1.266       .  A
O2113      C2128   1.282       .  A
O2113     Al2121   1.879       .  S
C2114      O2124   1.253       .  A
C2114      O2115   1.256       .  A
C2114      C2378   1.426       .  S
O2115     Al2117   1.873       .  S
O2116      C2118   1.233       .  A
O2116     Al2117   1.868       .  S
Al2117     O2125   1.908       .  S
Al2117     O2127   1.972       .  S
Al2117     O2126   1.744       .  S
C2118      O2131   1.252       .  A
C2118      C2745   1.469       .  S
O2119      C2129   1.285       .  A
O2119     Al2121   1.950       .  S
O2120      C2133   1.245       .  A
O2120     Al2130   1.888       .  S
Al2121     O2134   1.977       .  S
Al2121     O2131   1.986       .  S
Al2121     O2126   1.808       .  S
O2122      C2129   1.284       .  A
O2122     Al2130   1.950       .  S
O2123      C2132   1.258       .  A
O2123     Al2130   1.887       .  S
O2124     Al2130   1.843       .  S
O2125      C2132   1.256       .  A
O2126     Al2130   1.739       .  S
O2127      C2128   1.291       .  A
C2128      C2155   1.468   1_554  S
C2129      C2349   1.491       .  S
C2132      C2265   1.473       .  S
C2133      O2134   1.266       .  A
C2133      C2176   1.473       .  S
O2135      C2150   1.262       .  A
O2135     Al2143   1.958       .  S
C2136      O2146   1.277       .  A
C2136      O2137   1.271       .  A
C2136      C2400   1.470       .  S
O2137     Al2139   1.888       .  S
O2138      C2140   1.272       .  A
O2138     Al2139   1.915       .  S
Al2139     O2147   1.902       .  S
Al2139     O2149   1.876       .  S
Al2139     O2148   1.755       .  S
C2140      O2153   1.275       .  A
C2140      C2360   1.479       .  S
O2141      C2151   1.250       .  A
O2141     Al2143   1.951       .  S
O2142      C2155   1.291       .  A
O2142     Al2152   1.942       .  S
Al2143     O2156   1.914       .  S
Al2143     O2153   1.939       .  S
Al2143     O2148   1.795       .  S
O2144      C2151   1.232       .  A
O2144     Al2152   1.794       .  S
O2145      C2154   1.246       .  A
O2145     Al2152   1.916       .  S
O2146     Al2152   1.943       .  S
O2147      C2154   1.248       .  A
O2148     Al2152   1.768       .  S
O2149      C2150   1.244       .  A
C2150      C2198   1.474       .  S
C2151      C2756   1.469       .  S
C2154      C2282   1.474       .  S
C2155      O2156   1.286       .  A
O2157      C2172   1.282       .  A
O2157     Al2165   1.879       .  S
C2158      O2168   1.253       .  A
C2158      O2159   1.256       .  A
C2158      C2334   1.426       .  S
O2159     Al2161   1.873       .  S
O2160      C2162   1.233       .  A
O2160     Al2161   1.868       .  S
Al2161     O2169   1.909       .  S
Al2161     O2171   1.972       .  S
Al2161     O2170   1.744       .  S
C2162      O2175   1.252       .  A
C2162      C2701   1.469       .  S
O2163      C2173   1.285       .  A
O2163     Al2165   1.950       .  S
O2164      C2177   1.245       .  A
O2164     Al2174   1.888       .  S
Al2165     O2178   1.977       .  S
Al2165     O2175   1.986       .  S
Al2165     O2170   1.808       .  S
O2166      C2173   1.285       .  A
O2166     Al2174   1.950       .  S
O2167      C2176   1.258       .  A
O2167     Al2174   1.887       .  S
O2168     Al2174   1.843       .  S
O2169      C2176   1.256       .  A
O2170     Al2174   1.739       .  S
O2171      C2172   1.291       .  A
C2172      C2199   1.467   1_554  S
C2173      C2305   1.491       .  S
C2177      O2178   1.266       .  A
C2177      C2220   1.473       .  S
O2179      C2194   1.262       .  A
O2179     Al2187   1.958       .  S
C2180      O2190   1.277       .  A
C2180      O2181   1.271       .  A
C2180      C2356   1.470       .  S
O2181     Al2183   1.888       .  S
O2182      C2184   1.272       .  A
O2182     Al2183   1.915       .  S
Al2183     O2191   1.902       .  S
Al2183     O2193   1.876       .  S
Al2183     O2192   1.755       .  S
C2184      O2197   1.275       .  A
C2184      C2316   1.479       .  S
O2185      C2195   1.250       .  A
O2185     Al2187   1.951       .  S
O2186      C2199   1.291       .  A
O2186     Al2196   1.942       .  S
Al2187     O2200   1.914       .  S
Al2187     O2197   1.939       .  S
Al2187     O2192   1.795       .  S
O2188      C2195   1.232       .  A
O2188     Al2196   1.794       .  S
O2189      C2198   1.246       .  A
O2189     Al2196   1.916       .  S
O2190     Al2196   1.942       .  S
O2191      C2198   1.248       .  A
O2192     Al2196   1.768       .  S
O2193      C2194   1.244       .  A
C2194      C2242   1.474       .  S
C2195      C2712   1.469       .  S
C2199      O2200   1.286       .  A
O2201      C2216   1.282       .  A
O2201     Al2209   1.879       .  S
C2202      O2212   1.253       .  A
C2202      O2203   1.256       .  A
C2202      C2290   1.426       .  S
O2203     Al2205   1.873       .  S
O2204      C2206   1.233       .  A
O2204     Al2205   1.868       .  S
Al2205     O2213   1.908       .  S
Al2205     O2215   1.972       .  S
Al2205     O2214   1.744       .  S
C2206      O2219   1.252       .  A
C2206      C2657   1.469       .  S
O2207      C2217   1.285       .  A
O2207     Al2209   1.950       .  S
O2208      C2221   1.245       .  A
O2208     Al2218   1.888       .  S
Al2209     O2222   1.977       .  S
Al2209     O2219   1.986       .  S
Al2209     O2214   1.808       .  S
O2210      C2217   1.285       .  A
O2210     Al2218   1.950       .  S
O2211      C2220   1.258       .  A
O2211     Al2218   1.887       .  S
O2212     Al2218   1.843       .  S
O2213      C2220   1.256       .  A
O2214     Al2218   1.739       .  S
O2215      C2216   1.291       .  A
C2216      C2243   1.467   1_554  S
C2217      C2437   1.491       .  S
C2221      O2222   1.266       .  A
C2221      C2264   1.473       .  S
O2223      C2238   1.262       .  A
O2223     Al2231   1.958       .  S
C2224      O2234   1.277       .  A
C2224      O2225   1.271       .  A
C2224      C2312   1.470       .  S
O2225     Al2227   1.888       .  S
O2226      C2228   1.272       .  A
O2226     Al2227   1.915       .  S
Al2227     O2235   1.902       .  S
Al2227     O2237   1.876       .  S
Al2227     O2236   1.755       .  S
C2228      O2241   1.275       .  A
C2228      C2448   1.479       .  S
O2229      C2239   1.250       .  A
O2229     Al2231   1.951       .  S
O2230      C2243   1.291       .  A
O2230     Al2240   1.942       .  S
Al2231     O2244   1.914       .  S
Al2231     O2241   1.938       .  S
Al2231     O2236   1.795       .  S
O2232      C2239   1.232       .  A
O2232     Al2240   1.794       .  S
O2233      C2242   1.246       .  A
O2233     Al2240   1.916       .  S
O2234     Al2240   1.943       .  S
O2235      C2242   1.248       .  A
O2236     Al2240   1.768       .  S
O2237      C2238   1.244       .  A
C2238      C2286   1.474       .  S
C2239      C2668   1.469       .  S
C2243      O2244   1.286       .  A
O2245      C2260   1.282       .  A
O2245     Al2253   1.879       .  S
C2246      O2256   1.253       .  A
C2246      O2247   1.256       .  A
C2246      C2422   1.426       .  S
O2247     Al2249   1.873       .  S
O2248      C2250   1.233       .  A
O2248     Al2249   1.868       .  S
Al2249     O2257   1.909       .  S
Al2249     O2259   1.972       .  S
Al2249     O2258   1.744       .  S
C2250      O2263   1.252       .  A
C2250      C2789   1.469       .  S
O2251      C2261   1.285       .  A
O2251     Al2253   1.950       .  S
O2252      C2265   1.245       .  A
O2252     Al2262   1.888       .  S
Al2253     O2266   1.977       .  S
Al2253     O2263   1.986       .  S
Al2253     O2258   1.808       .  S
O2254      C2261   1.285       .  A
O2254     Al2262   1.950       .  S
O2255      C2264   1.258       .  A
O2255     Al2262   1.887       .  S
O2256     Al2262   1.843       .  S
O2257      C2264   1.256       .  A
O2258     Al2262   1.739       .  S
O2259      C2260   1.291       .  A
C2260      C2287   1.467   1_554  S
C2261      C2393   1.491       .  S
C2265      O2266   1.266       .  A
O2267      C2282   1.262       .  A
O2267     Al2275   1.958       .  S
C2268      O2278   1.277       .  A
C2268      O2269   1.271       .  A
C2268      C2444   1.470       .  S
O2269     Al2271   1.888       .  S
O2270      C2272   1.272       .  A
O2270     Al2271   1.915       .  S
Al2271     O2279   1.902       .  S
Al2271     O2281   1.876       .  S
Al2271     O2280   1.755       .  S
C2272      O2285   1.275       .  A
C2272      C2404   1.479       .  S
O2273      C2283   1.250       .  A
O2273     Al2275   1.951       .  S
O2274      C2287   1.291       .  A
O2274     Al2284   1.942       .  S
Al2275     O2288   1.914       .  S
Al2275     O2285   1.939       .  S
Al2275     O2280   1.795       .  S
O2276      C2283   1.232       .  A
O2276     Al2284   1.794       .  S
O2277      C2286   1.246       .  A
O2277     Al2284   1.916       .  S
O2278     Al2284   1.943       .  S
O2279      C2286   1.248       .  A
O2280     Al2284   1.768       .  S
O2281      C2282   1.244       .  A
C2283      C2800   1.469       .  S
C2287      O2288   1.286       .  A
O2289      C2304   1.281       .  A
O2289     Al2297   1.879       .  S
C2290      O2300   1.253       .  A
C2290      O2291   1.256       .  A
O2291     Al2293   1.873       .  S
O2292      C2294   1.233       .  A
O2292     Al2293   1.868       .  S
Al2293     O2301   1.908       .  S
Al2293     O2303   1.972       .  S
Al2293     O2302   1.744       .  S
C2294      O2307   1.252       .  A
C2294      C2503   1.469       .  S
O2295      C2305   1.285       .  A
O2295     Al2297   1.950       .  S
O2296      C2309   1.245       .  A
O2296     Al2306   1.888       .  S
Al2297     O2310   1.977       .  S
Al2297     O2307   1.986       .  S
Al2297     O2302   1.808       .  S
O2298      C2305   1.285       .  A
O2298     Al2306   1.950       .  S
O2299      C2308   1.258       .  A
O2299     Al2306   1.887       .  S
O2300     Al2306   1.843       .  S
O2301      C2308   1.256       .  A
O2302     Al2306   1.739       .  S
O2303      C2304   1.291       .  A
C2304      C2331   1.468       .  S
C2308      C2441   1.473       .  S
C2309      O2310   1.266       .  A
C2309      C2352   1.473       .  S
O2311      C2326   1.262       .  A
O2311     Al2319   1.958       .  S
C2312      O2322   1.277       .  A
C2312      O2313   1.271       .  A
O2313     Al2315   1.888       .  S
O2314      C2316   1.272       .  A
O2314     Al2315   1.915       .  S
Al2315     O2323   1.902       .  S
Al2315     O2325   1.876       .  S
Al2315     O2324   1.755       .  S
C2316      O2329   1.275       .  A
O2317      C2327   1.250       .  A
O2317     Al2319   1.951       .  S
O2318      C2331   1.291       .  A
O2318     Al2328   1.942       .  S
Al2319     O2332   1.914       .  S
Al2319     O2329   1.939       .  S
Al2319     O2324   1.795       .  S
O2320      C2327   1.232       .  A
O2320     Al2328   1.794       .  S
O2321      C2330   1.246       .  A
O2321     Al2328   1.916       .  S
O2322     Al2328   1.943       .  S
O2323      C2330   1.248       .  A
O2324     Al2328   1.768       .  S
O2325      C2326   1.244       .  A
C2326      C2374   1.474       .  S
C2327      C2470   1.469       .  S
C2330      C2458   1.474       .  S
C2331      O2332   1.286       .  A
O2333      C2348   1.281       .  A
O2333     Al2341   1.879       .  S
C2334      O2344   1.253       .  A
C2334      O2335   1.256       .  A
O2335     Al2337   1.873       .  S
O2336      C2338   1.233       .  A
O2336     Al2337   1.868       .  S
Al2337     O2345   1.908       .  S
Al2337     O2347   1.972       .  S
Al2337     O2346   1.744       .  S
C2338      O2351   1.252       .  A
C2338      C2591   1.469       .  S
O2339      C2349   1.285       .  A
O2339     Al2341   1.950       .  S
O2340      C2353   1.245       .  A
O2340     Al2350   1.888       .  S
Al2341     O2354   1.977       .  S
Al2341     O2351   1.986       .  S
Al2341     O2346   1.808       .  S
O2342      C2349   1.284       .  A
O2342     Al2350   1.950       .  S
O2343      C2352   1.258       .  A
O2343     Al2350   1.887       .  S
O2344     Al2350   1.843       .  S
O2345      C2352   1.256       .  A
O2346     Al2350   1.739       .  S
O2347      C2348   1.291       .  A
C2348      C2375   1.467       .  S
C2353      O2354   1.266       .  A
C2353      C2396   1.473       .  S
O2355      C2370   1.262       .  A
O2355     Al2363   1.958       .  S
C2356      O2366   1.277       .  A
C2356      O2357   1.271       .  A
O2357     Al2359   1.888       .  S
O2358      C2360   1.272       .  A
O2358     Al2359   1.915       .  S
Al2359     O2367   1.902       .  S
Al2359     O2369   1.876       .  S
Al2359     O2368   1.755       .  S
C2360      O2373   1.275       .  A
O2361      C2371   1.250       .  A
O2361     Al2363   1.951       .  S
O2362      C2375   1.291       .  A
O2362     Al2372   1.942       .  S
Al2363     O2376   1.914       .  S
Al2363     O2373   1.939       .  S
Al2363     O2368   1.795       .  S
O2364      C2371   1.232       .  A
O2364     Al2372   1.794       .  S
O2365      C2374   1.246       .  A
O2365     Al2372   1.916       .  S
O2366     Al2372   1.942       .  S
O2367      C2374   1.248       .  A
O2368     Al2372   1.768       .  S
O2369      C2370   1.244       .  A
C2370      C2418   1.474       .  S
C2371      C2558   1.469       .  S
C2375      O2376   1.286       .  A
O2377      C2392   1.282       .  A
O2377     Al2385   1.879       .  S
C2378      O2388   1.253       .  A
C2378      O2379   1.256       .  A
O2379     Al2381   1.873       .  S
O2380      C2382   1.233       .  A
O2380     Al2381   1.868       .  S
Al2381     O2389   1.908       .  S
Al2381     O2391   1.972       .  S
Al2381     O2390   1.744       .  S
C2382      O2395   1.252       .  A
C2382      C2547   1.469       .  S
O2383      C2393   1.285       .  A
O2383     Al2385   1.950       .  S
O2384      C2397   1.245       .  A
O2384     Al2394   1.888       .  S
Al2385     O2398   1.977       .  S
Al2385     O2395   1.986       .  S
Al2385     O2390   1.808       .  S
O2386      C2393   1.284       .  A
O2386     Al2394   1.950       .  S
O2387      C2396   1.258       .  A
O2387     Al2394   1.887       .  S
O2388     Al2394   1.843       .  S
O2389      C2396   1.256       .  A
O2390     Al2394   1.739       .  S
O2391      C2392   1.291       .  A
C2392      C2419   1.467       .  S
C2397      O2398   1.266       .  A
C2397      C2440   1.473       .  S
O2399      C2414   1.262       .  A
O2399     Al2407   1.958       .  S
C2400      O2410   1.277       .  A
C2400      O2401   1.271       .  A
O2401     Al2403   1.888       .  S
O2402      C2404   1.272       .  A
O2402     Al2403   1.915       .  S
Al2403     O2411   1.902       .  S
Al2403     O2413   1.876       .  S
Al2403     O2412   1.755       .  S
C2404      O2417   1.275       .  A
O2405      C2415   1.250       .  A
O2405     Al2407   1.951       .  S
O2406      C2419   1.291       .  A
O2406     Al2416   1.942       .  S
Al2407     O2420   1.914       .  S
Al2407     O2417   1.939       .  S
Al2407     O2412   1.795       .  S
O2408      C2415   1.232       .  A
O2408     Al2416   1.794       .  S
O2409      C2418   1.246       .  A
O2409     Al2416   1.916       .  S
O2410     Al2416   1.943       .  S
O2411      C2418   1.248       .  A
O2412     Al2416   1.768       .  S
O2413      C2414   1.244       .  A
C2414      C2462   1.474       .  S
C2415      C2514   1.469       .  S
C2419      O2420   1.286       .  A
O2421      C2436   1.282       .  A
O2421     Al2429   1.879       .  S
C2422      O2432   1.253       .  A
C2422      O2423   1.256       .  A
O2423     Al2425   1.873       .  S
O2424      C2426   1.233       .  A
O2424     Al2425   1.868       .  S
Al2425     O2433   1.908       .  S
Al2425     O2435   1.972       .  S
Al2425     O2434   1.744       .  S
C2426      O2439   1.252       .  A
C2426      C2635   1.469       .  S
O2427      C2437   1.285       .  A
O2427     Al2429   1.950       .  S
O2428      C2441   1.245       .  A
O2428     Al2438   1.888       .  S
Al2429     O2442   1.977       .  S
Al2429     O2439   1.986       .  S
Al2429     O2434   1.808       .  S
O2430      C2437   1.285       .  A
O2430     Al2438   1.950       .  S
O2431      C2440   1.258       .  A
O2431     Al2438   1.887       .  S
O2432     Al2438   1.843       .  S
O2433      C2440   1.256       .  A
O2434     Al2438   1.739       .  S
O2435      C2436   1.291       .  A
C2436      C2463   1.467       .  S
C2441      O2442   1.266       .  A
O2443      C2458   1.262       .  A
O2443     Al2451   1.958       .  S
C2444      O2454   1.277       .  A
C2444      O2445   1.271       .  A
O2445     Al2447   1.888       .  S
O2446      C2448   1.272       .  A
O2446     Al2447   1.915       .  S
Al2447     O2455   1.902       .  S
Al2447     O2457   1.876       .  S
Al2447     O2456   1.755       .  S
C2448      O2461   1.275       .  A
O2449      C2459   1.250       .  A
O2449     Al2451   1.951       .  S
O2450      C2463   1.291       .  A
O2450     Al2460   1.942       .  S
Al2451     O2464   1.914       .  S
Al2451     O2461   1.939       .  S
Al2451     O2456   1.795       .  S
O2452      C2459   1.232       .  A
O2452     Al2460   1.794       .  S
O2453      C2462   1.246       .  A
O2453     Al2460   1.916       .  S
O2454     Al2460   1.942       .  S
O2455      C2462   1.248       .  A
O2456     Al2460   1.768       .  S
O2457      C2458   1.244       .  A
C2459      C2602   1.469       .  S
C2463      O2464   1.286       .  A
O2465      C2480   1.281       .  A
O2465     Al2473   1.879       .  S
C2466      O2476   1.253       .  A
C2466      O2467   1.256       .  A
C2466      C2664   1.426       .  S
O2467     Al2469   1.873       .  S
O2468      C2470   1.233       .  A
O2468     Al2469   1.868       .  S
Al2469     O2477   1.908       .  S
Al2469     O2479   1.972       .  S
Al2469     O2478   1.744       .  S
C2470      O2483   1.252       .  A
O2471      C2481   1.285   1_655  A
O2471     Al2473   1.950       .  S
O2472      C2485   1.245       .  A
Al2473     O2483   1.986       .  S
Al2473     O2478   1.808       .  S
O2474      C2481   1.285       .  A
O2474     Al2482   1.950   1_455  S
O2475      C2484   1.258       .  A
O2475     Al2482   1.887       .  S
O2476     Al2482   1.843       .  S
O2477      C2484   1.256       .  A
O2478     Al2482   1.739       .  S
O2479      C2480   1.291       .  A
C2480      C2507   1.467       .  S
C2484      C2573   1.473       .  S
C2485      O2486   1.266       .  A
C2485      C2616   1.473       .  S
O2487      C2502   1.262       .  A
C2488      O2498   1.277       .  A
C2488      O2489   1.271       .  A
C2488      C2642   1.470       .  S
O2489     Al2491   1.888       .  S
O2490      C2492   1.272       .  A
O2490     Al2491   1.915       .  S
Al2491     O2499   1.902       .  S
Al2491     O2500   1.755       .  S
C2492      O2505   1.275       .  A
O2493      C2503   1.250       .  A
O2493     Al2495   1.951       .  S
O2494      C2507   1.291       .  A
O2494     Al2504   1.942       .  S
Al2495     O2508   1.914       .  S
Al2495     O2505   1.938       .  S
Al2495     O2500   1.795       .  S
O2496      C2503   1.232       .  A
O2496     Al2504   1.794       .  S
O2497      C2506   1.246       .  A
O2497     Al2504   1.916       .  S
O2498     Al2504   1.942       .  S
O2499      C2506   1.248       .  A
O2500     Al2504   1.768       .  S
O2501      C2502   1.244       .  A
C2502      C2638   1.474       .  S
C2506      C2590   1.474       .  S
C2507      O2508   1.286       .  A
O2509      C2524   1.281       .  A
O2509     Al2517   1.879       .  S
C2510      O2520   1.253       .  A
C2510      O2511   1.256       .  A
C2510      C2752   1.426       .  S
O2511     Al2513   1.873       .  S
O2512      C2514   1.233       .  A
O2512     Al2513   1.868       .  S
Al2513     O2521   1.908       .  S
Al2513     O2523   1.972       .  S
Al2513     O2522   1.744       .  S
C2514      O2527   1.252       .  A
O2515      C2525   1.285       .  A
O2515     Al2517   1.950       .  S
O2516     Al2526   1.888       .  S
Al2517     O2527   1.986       .  S
Al2517     O2522   1.808       .  S
O2518      C2525   1.285       .  A
O2518     Al2526   1.950       .  S
O2519      C2528   1.258       .  A
O2519     Al2526   1.887       .  S
O2520     Al2526   1.843       .  S
O2521      C2528   1.256       .  A
O2522     Al2526   1.739       .  S
O2523      C2524   1.291       .  A
C2524      C2551   1.467       .  S
C2528      C2617   1.473       .  S
C2529      O2530   1.266       .  A
C2529      C2572   1.473       .  S
O2531      C2546   1.262       .  A
C2532      O2542   1.277       .  A
C2532      O2533   1.271       .  A
C2532      C2730   1.470       .  S
O2533     Al2535   1.888       .  S
O2534      C2536   1.272       .  A
O2534     Al2535   1.915       .  S
Al2535     O2543   1.902       .  S
Al2535     O2544   1.755       .  S
C2536      O2549   1.275       .  A
O2537      C2547   1.250       .  A
O2537     Al2539   1.951       .  S
O2538      C2551   1.291       .  A
O2538     Al2548   1.942       .  S
Al2539     O2552   1.914       .  S
Al2539     O2549   1.939       .  S
Al2539     O2544   1.795       .  S
O2540      C2547   1.232       .  A
O2540     Al2548   1.794       .  S
O2541      C2550   1.246       .  A
O2541     Al2548   1.916       .  S
O2542     Al2548   1.942       .  S
O2543      C2550   1.248       .  A
O2544     Al2548   1.768       .  S
O2545      C2546   1.244   1_455  A
C2546      C2594   1.474       .  S
C2550      C2634   1.474       .  S
C2551      O2552   1.286       .  A
O2553      C2568   1.282       .  A
O2553     Al2561   1.879       .  S
C2554      O2564   1.253       .  A
C2554      O2555   1.256       .  A
C2554      C2708   1.426       .  S
O2555     Al2557   1.873       .  S
O2556      C2558   1.233       .  A
O2556     Al2557   1.868       .  S
Al2557     O2565   1.908       .  S
Al2557     O2567   1.972       .  S
Al2557     O2566   1.744       .  S
C2558      O2571   1.252       .  A
O2559      C2569   1.285       .  A
O2559     Al2561   1.950       .  S
O2560     Al2570   1.888       .  S
Al2561     O2571   1.986       .  S
Al2561     O2566   1.808       .  S
O2562      C2569   1.285       .  A
O2562     Al2570   1.950       .  S
O2563      C2572   1.258       .  A
O2563     Al2570   1.887       .  S
O2564     Al2570   1.843       .  S
O2565      C2572   1.256       .  A
O2566     Al2570   1.739       .  S
O2567      C2568   1.291       .  A
C2568      C2595   1.467       .  S
C2573      O2574   1.266       .  A
O2575      C2590   1.262       .  A
C2576      O2586   1.277       .  A
C2576      O2577   1.271       .  A
C2576      C2686   1.470       .  S
O2577     Al2579   1.888       .  S
O2578      C2580   1.272       .  A
O2578     Al2579   1.915       .  S
Al2579     O2587   1.902       .  S
Al2579     O2589   1.876       .  S
Al2579     O2588   1.755       .  S
C2580      O2593   1.275       .  A
O2581      C2591   1.250       .  A
O2581     Al2583   1.951       .  S
O2582      C2595   1.291       .  A
O2582     Al2592   1.942       .  S
Al2583     O2596   1.914       .  S
Al2583     O2593   1.939       .  S
Al2583     O2588   1.795       .  S
O2584      C2591   1.232       .  A
O2584     Al2592   1.794       .  S
O2585      C2594   1.246       .  A
O2585     Al2592   1.916       .  S
O2586     Al2592   1.943       .  S
O2587      C2594   1.248       .  A
O2588     Al2592   1.768       .  S
C2595      O2596   1.286       .  A
O2597      C2612   1.282       .  A
O2597     Al2605   1.879       .  S
C2598      O2608   1.253       .  A
C2598      O2599   1.256       .  A
C2598      C2796   1.426       .  S
O2599     Al2601   1.873       .  S
O2600      C2602   1.233       .  A
O2600     Al2601   1.868       .  S
Al2601     O2609   1.908       .  S
Al2601     O2611   1.972       .  S
Al2601     O2610   1.744       .  S
C2602      O2615   1.252       .  A
O2603      C2613   1.285       .  A
O2603     Al2605   1.950       .  S
O2604      C2617   1.245       .  A
Al2605     O2615   1.986       .  S
Al2605     O2610   1.808       .  S
O2606      C2613   1.285       .  A
O2606     Al2614   1.950       .  S
O2607      C2616   1.258       .  A
O2607     Al2614   1.887       .  S
O2608     Al2614   1.843       .  S
O2609      C2616   1.256       .  A
O2610     Al2614   1.739       .  S
O2611      C2612   1.291       .  A
C2612      C2639   1.468       .  S
C2617      O2618   1.266       .  A
O2619      C2634   1.262       .  A
C2620      O2630   1.277       .  A
C2620      O2621   1.271       .  A
C2620      C2774   1.470       .  S
O2621     Al2623   1.888       .  S
O2622      C2624   1.272       .  A
O2622     Al2623   1.915       .  S
Al2623     O2631   1.902       .  S
Al2623     O2632   1.755       .  S
C2624      O2637   1.275       .  A
O2625      C2635   1.250       .  A
O2625     Al2627   1.951       .  S
O2626      C2639   1.291       .  A
O2626     Al2636   1.942       .  S
Al2627     O2640   1.914       .  S
Al2627     O2637   1.939       .  S
Al2627     O2632   1.795       .  S
O2628      C2635   1.232       .  A
O2628     Al2636   1.794       .  S
O2629      C2638   1.246       .  A
O2629     Al2636   1.916       .  S
O2630     Al2636   1.943       .  S
O2631      C2638   1.248       .  A
O2632     Al2636   1.768       .  S
O2633      C2634   1.244       .  A
C2639      O2640   1.286       .  A
O2641      C2656   1.262       .  A
C2642      O2652   1.277       .  A
C2642      O2643   1.271       .  A
O2643     Al2645   1.888       .  S
O2644      C2646   1.272       .  A
O2644     Al2645   1.915       .  S
Al2645     O2653   1.902       .  S
Al2645     O2654   1.755       .  S
C2646      O2659   1.275       .  A
O2647      C2657   1.250       .  A
O2647     Al2649   1.951       .  S
O2648      C2661   1.291       .  A
O2648     Al2658   1.942       .  S
Al2649     O2662   1.914       .  S
Al2649     O2659   1.939       .  S
Al2649     O2654   1.795       .  S
O2650      C2657   1.232       .  A
O2650     Al2658   1.794       .  S
O2651      C2660   1.246       .  A
O2651     Al2658   1.916       .  S
O2652     Al2658   1.942       .  S
O2653      C2660   1.248       .  A
O2654     Al2658   1.768       .  S
O2655      C2656   1.244       .  A
C2656      C2704   1.474       .  S
C2660      C2788   1.474       .  S
C2661      O2662   1.286       .  A
C2661      C2678   1.468   1_554  S
O2663      C2678   1.282       .  A
O2663     Al2671   1.879       .  S
C2664      O2674   1.253       .  A
C2664      O2665   1.256       .  A
O2665     Al2667   1.873       .  S
O2666      C2668   1.233       .  A
O2666     Al2667   1.868       .  S
Al2667     O2675   1.909       .  S
Al2667     O2677   1.972       .  S
Al2667     O2676   1.744       .  S
C2668      O2681   1.252       .  A
O2669      C2679   1.285       .  A
O2669     Al2671   1.950       .  S
O2670      C2683   1.245       .  A
Al2671     O2681   1.986       .  S
Al2671     O2676   1.808       .  S
O2672      C2679   1.285       .  A
O2672     Al2680   1.950       .  S
O2673      C2682   1.258       .  A
O2673     Al2680   1.887       .  S
O2674     Al2680   1.843       .  S
O2675      C2682   1.256       .  A
O2676     Al2680   1.739       .  S
O2677      C2678   1.291       .  A
C2682      C2815   1.473       .  S
C2683      O2684   1.266       .  A
C2683      C2726   1.473       .  S
O2685      C2700   1.262       .  A
C2686      O2696   1.277       .  A
C2686      O2687   1.271       .  A
O2687     Al2689   1.888       .  S
O2688      C2690   1.272       .  A
O2688     Al2689   1.915       .  S
Al2689     O2697   1.902       .  S
Al2689     O2698   1.755       .  S
C2690      O2703   1.275       .  A
O2691      C2701   1.250       .  A
O2691     Al2693   1.951       .  S
O2692      C2705   1.291       .  A
O2692     Al2702   1.942       .  S
Al2693     O2706   1.914       .  S
Al2693     O2703   1.939       .  S
Al2693     O2698   1.795       .  S
O2694      C2701   1.232       .  A
O2694     Al2702   1.794       .  S
O2695      C2704   1.246       .  A
O2695     Al2702   1.916       .  S
O2696     Al2702   1.943       .  S
O2697      C2704   1.248       .  A
O2698     Al2702   1.768       .  S
O2699      C2700   1.244       .  A
C2700      C2748   1.474       .  S
C2705      O2706   1.286       .  A
C2705      C2722   1.467   1_554  S
O2707      C2722   1.281       .  A
O2707     Al2715   1.879       .  S
C2708      O2718   1.253       .  A
C2708      O2709   1.256       .  A
O2709     Al2711   1.873       .  S
O2710      C2712   1.233       .  A
O2710     Al2711   1.868       .  S
Al2711     O2719   1.908       .  S
Al2711     O2721   1.972       .  S
Al2711     O2720   1.744       .  S
C2712      O2725   1.252       .  A
O2713      C2723   1.285   1_655  A
O2713     Al2715   1.950       .  S
O2714      C2727   1.245       .  A
Al2715     O2725   1.986       .  S
Al2715     O2720   1.808       .  S
O2716      C2723   1.285       .  A
O2716     Al2724   1.950   1_455  S
O2717      C2726   1.258       .  A
O2717     Al2724   1.887       .  S
O2718     Al2724   1.843       .  S
O2719      C2726   1.256       .  A
O2720     Al2724   1.739       .  S
O2721      C2722   1.291       .  A
C2727      O2728   1.266       .  A
C2727      C2770   1.473       .  S
O2729      C2744   1.262       .  A
C2730      O2740   1.277       .  A
C2730      O2731   1.271       .  A
O2731     Al2733   1.888       .  S
O2732      C2734   1.272       .  A
O2732     Al2733   1.915       .  S
Al2733     O2741   1.902       .  S
Al2733     O2743   1.876       .  S
Al2733     O2742   1.755       .  S
C2734      O2747   1.275       .  A
O2735      C2745   1.250       .  A
O2735     Al2737   1.951       .  S
O2736      C2749   1.291       .  A
O2736     Al2746   1.942       .  S
Al2737     O2750   1.914       .  S
Al2737     O2747   1.939       .  S
Al2737     O2742   1.795       .  S
O2738      C2745   1.232       .  A
O2738     Al2746   1.794       .  S
O2739      C2748   1.246       .  A
O2739     Al2746   1.916       .  S
O2740     Al2746   1.943       .  S
O2741      C2748   1.248       .  A
O2742     Al2746   1.768       .  S
C2744      C2792   1.474       .  S
C2749      O2750   1.286       .  A
C2749      C2766   1.467   1_554  S
O2751      C2766   1.282       .  A
O2751     Al2759   1.879       .  S
C2752      O2762   1.253       .  A
C2752      O2753   1.256       .  A
O2753     Al2755   1.873       .  S
O2754      C2756   1.233       .  A
O2754     Al2755   1.868       .  S
Al2755     O2763   1.908       .  S
Al2755     O2765   1.972       .  S
Al2755     O2764   1.744       .  S
C2756      O2769   1.252       .  A
O2757      C2767   1.285       .  A
O2757     Al2759   1.950       .  S
O2758     Al2768   1.888       .  S
Al2759     O2769   1.986       .  S
Al2759     O2764   1.808       .  S
O2760      C2767   1.285       .  A
O2760     Al2768   1.950       .  S
O2761      C2770   1.258       .  A
O2761     Al2768   1.887       .  S
O2762     Al2768   1.843       .  S
O2763      C2770   1.256       .  A
O2764     Al2768   1.739       .  S
O2765      C2766   1.291       .  A
C2771      O2772   1.266       .  A
C2771      C2814   1.473       .  S
O2773      C2788   1.262       .  A
C2774      O2784   1.277       .  A
C2774      O2775   1.271       .  A
O2775     Al2777   1.888       .  S
O2776      C2778   1.272       .  A
O2776     Al2777   1.915       .  S
Al2777     O2785   1.902       .  S
Al2777     O2786   1.755       .  S
C2778      O2791   1.275       .  A
O2779      C2789   1.250       .  A
O2779     Al2781   1.951       .  S
O2780      C2793   1.291       .  A
O2780     Al2790   1.942       .  S
Al2781     O2794   1.914       .  S
Al2781     O2791   1.939       .  S
Al2781     O2786   1.795       .  S
O2782      C2789   1.232       .  A
O2782     Al2790   1.794       .  S
O2783      C2792   1.246       .  A
O2783     Al2790   1.916       .  S
O2784     Al2790   1.943       .  S
O2785      C2792   1.248       .  A
O2786     Al2790   1.768       .  S
O2787      C2788   1.244   1_455  A
C2793      O2794   1.286       .  A
C2793      C2810   1.467   1_554  S
O2795      C2810   1.282       .  A
O2795     Al2803   1.879       .  S
C2796      O2806   1.253       .  A
C2796      O2797   1.256       .  A
O2797     Al2799   1.873       .  S
O2798      C2800   1.233       .  A
O2798     Al2799   1.868       .  S
Al2799     O2807   1.908       .  S
Al2799     O2809   1.972       .  S
Al2799     O2808   1.744       .  S
C2800      O2813   1.252       .  A
O2801      C2811   1.285       .  A
O2801     Al2803   1.950       .  S
O2802     Al2812   1.888       .  S
Al2803     O2813   1.986       .  S
Al2803     O2808   1.808       .  S
O2804      C2811   1.285       .  A
O2804     Al2812   1.950       .  S
O2805      C2814   1.258       .  A
O2805     Al2812   1.887       .  S
O2806     Al2812   1.843       .  S
O2807      C2814   1.256       .  A
O2808     Al2812   1.739       .  S
O2809      C2810   1.291       .  A
C2815      O2816   1.266       .  A
