geometry optimzed in LAMMPS
_audit_creation_date              2020-11-30 
_audit_creation_method            'lammps2cif' 
_symmetry_space_group_name_H-M    'P1' 
_symmetry_Int_Tables_number       1 
_symmetry_cell_setting            triclinic 
loop_ 
_symmetry_equiv_pos_as_xyz 
  x,y,z 
_cell_length_a                    24.3343587097621 
_cell_length_b                    24.296191799194176 
_cell_length_c                    48.033569266526655 
_cell_angle_alpha                 86.90203063976426 
_cell_angle_beta                  89.04409946664838 
_cell_angle_gamma                 88.58080004231701 
loop_ 
_atom_site_label 
_atom_site_type_symbol 
_atom_site_fract_x 
_atom_site_fract_y 
_atom_site_fract_z 
_atom_site_charge 
O1          O  0.99873451  0.35936388  0.69973671    -0.80880
O2          O  0.93385848  0.59647480  0.73905257    -0.65570
O3          O  0.99135020  0.47016796  0.70559974    -1.12180
C4          C  0.11237911  0.48369261  0.78189239     1.06000
O5          O  0.01614000  0.63075417  0.73038014    -0.78780
O6          O  0.11699026  0.57273632  0.72505599    -0.66360
Ni7        Ni  0.94009638  0.41321679  0.70005967     1.34870
C8          C  0.13421785  0.52966936  0.71328615     0.84740
O9          O  0.90110366  0.54442625  0.69620247    -0.79320
O10         O  0.87315192  0.45876734  0.69834757    -0.89600
C11         C  0.96540223  0.63694622  0.73703651     0.84310
O12         O  0.93013546  0.40148792  0.73934938    -0.67800
O13         O  0.10498734  0.53592986  0.77879932    -0.87090
C14         C  0.91010077  0.43697447  0.75555987     0.85140
C15         C  0.86372670  0.51007232  0.69388727     1.06710
H16         H  0.99993771  0.51353326  0.76631656     0.38510
O17         O  0.01593697  0.52246467  0.74819391    -1.09740
O18         O  0.10579350  0.48618617  0.71351374    -0.66400
Ni19       Ni  0.04423588  0.45682431  0.73547070     1.26350
O20         O  0.91201912  0.48901898  0.74906015    -0.66620
O21         O  0.09209759  0.44816823  0.76649278    -0.78920
C22         C  0.04607373  0.35221138  0.71033904     0.84530
O23         O  0.06975571  0.38771272  0.72387773    -0.66090
Ni24       Ni  0.06154956  0.58227351  0.75376251     1.27450
Ni25       Ni  0.95893133  0.53264991  0.72236207     1.26060
H26         H  0.00957105  0.48125206  0.68823995     0.39070
O27         O  0.99594793  0.85976321  0.76116488    -0.80880
O28         O  0.04548138  0.09369894  0.73802319    -0.65570
O29         O  0.98907419  0.96660866  0.77308094    -1.12180
C30         C  0.82962510  0.99423885  0.72089431     1.06000
O31         O  0.96690707  0.13727049  0.72577151    -0.78780
O32         O  0.89974031  0.08810795  0.76563636    -0.66360
Ni33       Ni  0.03572796  0.90668903  0.78389817     1.34870
C34         C  0.88314850  0.04902031  0.78208794     0.84740
O35         O  0.07530947  0.03390705  0.78315994    -0.79320
O36         O  0.07489053  0.95256828  0.80790836    -0.89600
C37         C  0.01875596  0.13568967  0.72902032     0.84150
O38         O  0.09514088  0.91530172  0.75686076    -0.67800
O39         O  0.84079551  0.04416566  0.72459074    -0.87090
C40         C  0.10409169  0.95212703  0.73759559     0.85140
C41         C  0.08980272  0.00254525  0.80420873     1.06710
H42         H  0.97153735  0.01498989  0.71171914     0.38510
O43         O  0.95772636  0.02390396  0.72994794    -1.09740
O44         O  0.88403843  0.99847461  0.77579508    -0.66400
Ni45       Ni  0.92878549  0.95958631  0.74869925     1.26350
O46         O  0.06869443  0.99043009  0.73163325    -0.66620
O47         O  0.86549760  0.95540602  0.72480388    -0.78920
C48         C  0.94434278  0.85194321  0.76401109     0.84530
O49         O  0.90946917  0.89128523  0.76642799    -0.66090
Ni50       Ni  0.90765418  0.08600869  0.72632003     1.27450
Ni51       Ni  0.01829990  0.02934952  0.75572229     1.26060
H52         H  0.97413300  0.97780484  0.79061801     0.39070
O53         O  0.52496194  0.36283133  0.68559495    -0.80880
O54         O  0.53728761  0.59450289  0.62033322    -0.65570
O55         O  0.51627110  0.47587639  0.67423762    -1.12180
C56         C  0.37165985  0.44325020  0.61184055     1.06000
O57         O  0.44861411  0.61555616  0.62654134    -0.78780
O58         O  0.36211200  0.55188683  0.64341466    -0.66360
Ni59       Ni  0.57403489  0.42206374  0.68111046     1.34870
C60         C  0.35975516  0.52724046  0.66737772     0.84740
O61         O  0.59762306  0.55671101  0.66405292    -0.79320
O62         O  0.63149172  0.47386244  0.67814543    -0.89600
C63         C  0.49787783  0.62978262  0.62139657     0.84310
O64         O  0.58482387  0.40561853  0.64292687    -0.67800
O65         O  0.38062206  0.49036576  0.59984192    -0.87090
C66         C  0.59138130  0.43822260  0.62158411     0.85140
C67         C  0.63700415  0.52494059  0.67266090     1.06710
H68         H  0.48295328  0.48533259  0.61310427     0.38510
O69         O  0.46980862  0.50525992  0.62881479    -1.09740
O70         O  0.39923522  0.49578831  0.67669924    -0.66400
Ni71       Ni  0.45190585  0.45066221  0.65603027     1.26350
O72         O  0.57797139  0.48943595  0.62150922    -0.66620
O73         O  0.39206045  0.42528989  0.63504348    -0.78920
C74         C  0.47379163  0.35598586  0.68872508     0.84530
O75         O  0.43833453  0.39396832  0.68364236    -0.66090
Ni76       Ni  0.41509563  0.55259080  0.61342329     1.27450
Ni77       Ni  0.53207895  0.53295461  0.64643047     1.26060
H78         H  0.50570210  0.49216316  0.69150188     0.39070
O79         O  0.43267231  0.11728044  0.65235516    -0.80880
O80         O  0.43217218  0.87631158  0.64921483    -0.65570
O81         O  0.44829465  0.01788433  0.67696959    -1.12180
C82         C  0.58558027  0.02298344  0.60525726     1.06000
O83         O  0.51993405  0.87040375  0.65979378    -0.78780
O84         O  0.60685986  0.93993521  0.65815714    -0.66360
Ni85       Ni  0.38972723  0.07016564  0.67576434     1.34870
C86         C  0.60874644  0.97725122  0.67548910     0.84740
O87         O  0.36341175  0.93734738  0.68322699    -0.79320
O88         O  0.34479449  0.02212373  0.69805313    -0.89600
C89         C  0.47698298  0.84811474  0.65143819     0.84310
O90         O  0.35240607  0.05327268  0.64287146    -0.67800
O91         O  0.58342220  0.97022121  0.60516454    -0.87090
C92         C  0.36065236  0.01719039  0.62514712     0.85140
C93         C  0.33093532  0.97254008  0.69489395     1.06710
H94         H  0.48357619  0.97680978  0.62060495     0.38510
O95         O  0.49666250  0.96809598  0.63920985    -1.09740
O96         O  0.56778922  0.01058277  0.67948174    -0.66400
Ni97       Ni  0.51054969  0.03630010  0.65271775     1.26350
O98         O  0.39108301  0.97481287  0.63016713    -0.66620
O99         O  0.56695649  0.05175967  0.62510258    -0.78920
C100        C  0.47372551  0.13809082  0.66277625     0.84530
O101        O  0.51663375  0.10813496  0.66646104    -0.66090
Ni102      Ni  0.55341999  0.91845973  0.63262493     1.27450
Ni103      Ni  0.43340621  0.94898744  0.66227470     1.26060
H104        H  0.46051460  0.01197163  0.69595979     0.39070
O105        O  0.84989983  0.23781636  0.48496644    -0.80880
O106        O  0.60745302  0.28074511  0.46537918    -0.65570
O107        O  0.74110273  0.22945209  0.49632162    -1.12180
C108        C  0.73834540  0.07722411  0.44253397     1.06000
O109        O  0.58374582  0.20676955  0.44315632    -0.78780
O110        O  0.62904232  0.14047827  0.48492158    -0.66360
Ni111      Ni  0.79605585  0.27808142  0.50583412     1.34870
C112        C  0.66625068  0.12251850  0.50171260     0.84740
O113        O  0.66015143  0.30356673  0.51156903    -0.79320
O114        O  0.74425152  0.31819080  0.52841599    -0.89600
C115        C  0.57402802  0.25480656  0.45142068     0.84310
O116        O  0.78850094  0.33404577  0.47625957    -0.67800
O117        O  0.68722006  0.08614618  0.44582561    -0.87090
C118        C  0.74797458  0.34855536  0.46097298     0.85140
C119        C  0.69179053  0.32388472  0.52932492     1.06710
H120        H  0.70412939  0.22402531  0.43442486     0.38510
O121        O  0.69377874  0.20467705  0.45175261    -1.09740
O122        O  0.71722051  0.12400115  0.49526183    -0.66400
Ni123      Ni  0.75734228  0.17435419  0.47025403     1.26350
O124        O  0.70565269  0.31896686  0.45941681    -0.66620
O125        O  0.77222408  0.11573979  0.44496483    -0.78920
C126        C  0.85900031  0.18643240  0.49028061     0.84530
O127        O  0.82153042  0.15161943  0.48915117    -0.66090
Ni128      Ni  0.63959729  0.15084681  0.44562626     1.27450
Ni129      Ni  0.67542982  0.25642119  0.48082614     1.26060
H130        H  0.73123162  0.21117359  0.51399193     0.39070
O131        O  0.35339336  0.18951597  0.45795503    -0.80880
O132        O  0.11918859  0.14409317  0.51239705    -0.65570
O133        O  0.24192352  0.18664859  0.46812586    -1.12180
C134        C  0.25268189  0.30818001  0.54264604     1.06000
O135        O  0.09163407  0.23223092  0.50842359    -0.78780
O136        O  0.15424343  0.32686300  0.50331174    -0.66360
Ni137      Ni  0.29899197  0.13302531  0.46223270     1.34870
C138        C  0.18236200  0.33589157  0.48107426     0.84740
O139        O  0.16523356  0.10192066  0.46740634    -0.79320
O140        O  0.25129509  0.07008982  0.46378798    -0.89600
C141        C  0.08162637  0.18085635  0.50957593     0.84310
O142        O  0.31207123  0.12131822  0.50149001    -0.67800
O143        O  0.20431183  0.29375258  0.55017317    -0.87090
C144        C  0.27625145  0.10404544  0.51943467     0.85140
C145        C  0.19962646  0.06284510  0.46346925     1.06710
H146        H  0.21916429  0.19875486  0.53078259     0.38510
O147        O  0.20213144  0.21602781  0.51445117    -1.09740
O148        O  0.21474682  0.29907781  0.47161169    -0.66400
Ni149      Ni  0.25919469  0.24445160  0.49257811     1.26350
O150        O  0.22470134  0.10902108  0.51493314    -0.66620
O151        O  0.27544869  0.29780259  0.51919426    -0.78920
C152        C  0.35499109  0.24184262  0.45914220     0.84530
O153        O  0.31761611  0.27071393  0.47011465    -0.66090
Ni154      Ni  0.14840214  0.26344580  0.52902694     1.27450
Ni155      Ni  0.18230114  0.16051996  0.49075782     1.26060
H156        H  0.22860419  0.20200948  0.45045244     0.39070
O157        O  0.35198080  0.70882645  0.44288916    -0.80880
O158        O  0.10871689  0.75762967  0.40239772    -0.65570
O159        O  0.23816388  0.71064412  0.44116760    -1.12180
C160        C  0.24078890  0.58484865  0.36762414     1.06000
O161        O  0.08464792  0.67067221  0.40896453    -0.78780
O162        O  0.14709440  0.57406075  0.41258066    -0.66360
Ni163      Ni  0.29438199  0.76296579  0.44564602     1.34870
C164        C  0.17993860  0.56297641  0.43246986     0.84740
O165        O  0.15848410  0.79811638  0.44531155    -0.79320
O166        O  0.24460037  0.82422246  0.45058710    -0.89600
C167        C  0.07212914  0.72131488  0.40370914     0.84310
O168        O  0.30124885  0.78198820  0.40664043    -0.67800
O169        O  0.19102841  0.60000566  0.36277326    -0.87090
C170        C  0.26332668  0.79744946  0.38985404     0.85140
C171        C  0.19308686  0.83336488  0.45189143     1.06710
H172        H  0.20693626  0.69851790  0.37980813     0.38510
O173        O  0.19310173  0.68173665  0.39712941    -1.09740
O174        O  0.21611380  0.59699356  0.43919998    -0.66400
Ni175      Ni  0.25455220  0.65249494  0.41588752     1.26350
O176        O  0.21252499  0.78913164  0.39510030    -0.66620
O177        O  0.26822627  0.59888245  0.38850771    -0.78920
C178        C  0.35751393  0.65698131  0.44134066     0.84530
O179        O  0.31901824  0.62642064  0.43466244    -0.66090
Ni180      Ni  0.13820742  0.63523096  0.38605568     1.27450
Ni181      Ni  0.17466806  0.73868490  0.42138899     1.26060
H182        H  0.22701436  0.69499755  0.45924654     0.39070
O183        O  0.83880563  0.67370148  0.37834087    -0.80880
O184        O  0.61365468  0.63865665  0.42168191    -0.65570
O185        O  0.72775179  0.69089596  0.37519462    -1.12180
C186        C  0.73584433  0.84558077  0.42713602     1.06000
O187        O  0.58135068  0.71972570  0.43558835    -0.78780
O188        O  0.61973392  0.78582911  0.39132267    -0.66360
Ni189      Ni  0.77934159  0.64185642  0.35965657     1.34870
C190        C  0.65327942  0.80197477  0.37208175     0.84740
O191        O  0.65045443  0.61083938  0.37178635    -0.79320
O192        O  0.72075440  0.60997862  0.34031085    -0.89600
C193        C  0.57784037  0.66778629  0.43368801     0.84310
O194        O  0.77655872  0.58037064  0.38668858    -0.67800
O195        O  0.68419155  0.83817444  0.42788340    -0.87090
C196        C  0.74950048  0.57239108  0.40934164     0.85140
C197        C  0.67188349  0.59811039  0.34837284     1.06710
H198        H  0.70718192  0.70558913  0.43952274     0.38510
O199        O  0.69222652  0.72141751  0.42229510    -1.09740
O200        O  0.70544732  0.79817387  0.37497577    -0.66400
Ni201      Ni  0.75024754  0.74731336  0.39816531     1.26350
O202        O  0.71583621  0.60864637  0.41831470    -0.66620
O203        O  0.76985036  0.80751900  0.42053038    -0.78920
C204        C  0.84923682  0.72494983  0.37875762     0.84530
O205        O  0.81218188  0.76217230  0.37504308    -0.66090
Ni206      Ni  0.63632770  0.77527137  0.43007648     1.27450
Ni207      Ni  0.67118845  0.66389850  0.39812442     1.26060
H208        H  0.71013847  0.70821803  0.35903105     0.39070
O209        O  0.62986579  0.26453825  0.89933492    -0.80880
O210        O  0.86503672  0.30170821  0.92286582    -0.65570
O211        O  0.73995190  0.25121803  0.88903264    -1.12180
C212        C  0.74647198  0.09320866  0.94864731     1.06000
O213        O  0.90075888  0.21869424  0.93542655    -0.78780
O214        O  0.85016523  0.15109870  0.90077477    -0.66360
Ni215      Ni  0.68459987  0.30087674  0.87572388     1.34870
C216        C  0.81140891  0.13592594  0.88561418     0.84740
O217        O  0.81644040  0.33060565  0.87481300    -0.79320
O218        O  0.73766644  0.33573967  0.85048626    -0.89600
C219        C  0.90432646  0.27053723  0.93092164     0.84310
O220        O  0.69163167  0.36017904  0.90067883    -0.67800
O221        O  0.79759109  0.10219347  0.94598223    -0.87090
C222        C  0.72536893  0.36875491  0.91985308     0.85140
C223        C  0.78901896  0.34472844  0.85287863     1.06710
H224        H  0.77668977  0.23421297  0.95168796     0.38510
O225        O  0.78717000  0.21900535  0.93414193    -1.09740
O226        O  0.76119785  0.14331263  0.89217831    -0.66400
Ni227      Ni  0.72380175  0.19330751  0.91620900     1.26350
O228        O  0.76358577  0.33388784  0.92666821    -0.66620
O229        O  0.71043033  0.13095743  0.94250155    -0.78920
C230        C  0.62063552  0.21288924  0.89879142     0.84530
O231        O  0.65901618  0.17700912  0.89817351    -0.66090
Ni232      Ni  0.84489889  0.16450813  0.93961297     1.27450
Ni233      Ni  0.80180345  0.27765989  0.90568955     1.26060
H234        H  0.75336766  0.23451197  0.87236634     0.39070
O235        O  0.13052528  0.20933117  0.94175308    -0.80880
O236        O  0.35974952  0.16648983  0.88389334    -0.65570
O237        O  0.24334755  0.20358764  0.93320626    -1.12180
C238        C  0.22548473  0.35281643  0.86383917     1.06000
O239        O  0.38724346  0.25232126  0.88769320    -0.78780
O240        O  0.32886174  0.34771689  0.89779110    -0.66360
Ni241      Ni  0.18671328  0.15289344  0.94278631     1.34870
C242        C  0.30532880  0.35169638  0.92142159     0.84740
O243        O  0.31919209  0.11341005  0.92919369    -0.79320
O244        O  0.23525826  0.08907302  0.94400318    -0.89600
C245        C  0.39747639  0.20081028  0.88662361     0.84310
O246        O  0.17006973  0.13992189  0.90517638    -0.67800
O247        O  0.26992207  0.33377565  0.85310753    -0.87090
C248        C  0.20192795  0.12580764  0.88541949     0.85140
C249        C  0.28512280  0.07725374  0.93799475     1.06710
H250        H  0.25577640  0.23248695  0.87078299     0.38510
O251        O  0.27622321  0.24410839  0.88635307    -1.09740
O252        O  0.27359965  0.31422144  0.93149555    -0.66400
Ni253      Ni  0.22378396  0.27030475  0.91127761     1.26350
O254        O  0.25329568  0.13591126  0.88486609    -0.66620
O255        O  0.20568893  0.33483666  0.88739130    -0.78920
C256        C  0.12711318  0.26162043  0.93994350     0.84530
O257        O  0.16831732  0.29190643  0.93657311    -0.66090
Ni258      Ni  0.32813324  0.29260321  0.87046169     1.27450
Ni259      Ni  0.29912728  0.17990961  0.90785546     1.26060
H260        H  0.26056589  0.21316955  0.95020991     0.39070
O261        O  0.12286725  0.71516106  0.94647001    -0.80880
O262        O  0.35710825  0.76301364  0.99418916    -0.65570
O263        O  0.23611375  0.71837299  0.95325219    -1.12180
C264        C  0.23418053  0.58748947  0.03127483     1.06000
O265        O  0.38975033  0.67784953  0.98951997    -0.78780
O266        O  0.33264880  0.57952389  0.98657815    -0.66360
Ni267      Ni  0.17757955  0.77107089  0.94575908     1.34870
C268        C  0.29894274  0.56996105  0.96760368     0.84740
O269        O  0.31075774  0.80611669  0.94861284    -0.79320
O270        O  0.22410038  0.83473605  0.94279839    -0.89600
C271        C  0.39702239  0.72909590  0.99250634     0.84310
O272        O  0.16476767  0.78137030  0.98456602    -0.67800
O273        O  0.28408226  0.59956540  0.03547460    -0.87090
C274        C  0.19969540  0.79798275  0.00146975     0.85140
C275        C  0.27542955  0.84371189  0.94229427     1.06710
H276        H  0.26392795  0.70084882  0.01630013     0.38510
O277        O  0.27915147  0.68593659  0.99952377    -1.09740
O278        O  0.26131569  0.60468725  0.95999729    -0.66400
Ni279      Ni  0.22051914  0.65914409  0.98062902     1.26350
O280        O  0.25149618  0.79257673  0.99743423    -0.66620
O281        O  0.20651424  0.60442789  0.00991847    -0.78920
C282        C  0.12068765  0.66343654  0.95193165     0.84530
O283        O  0.16006579  0.63446206  0.96169072    -0.66090
Ni284      Ni  0.33636757  0.63805117  0.01204878     1.27450
Ni285      Ni  0.29549098  0.74492948  0.97393692     1.26060
H286        H  0.24983914  0.70397466  0.93604065     0.39070
O287        O  0.63007927  0.67923171  0.00461214    -0.80880
O288        O  0.86249430  0.63665169  0.97654846    -0.65570
O289        O  0.73827176  0.68561761  0.01541730    -1.12180
C290        C  0.74608894  0.85565246  0.96659360     1.06000
O291        O  0.89875047  0.71940196  0.96687686    -0.78780
O292        O  0.85114357  0.78010189  0.00720270    -0.66360
Ni293      Ni  0.68236382  0.63748785  0.02676715     1.34870
C294        C  0.81360364  0.79393240  0.02440304     0.84740
O295        O  0.81228136  0.59954301  0.02384054    -0.79320
O296        O  0.73403137  0.59685143  0.04975637    -0.89600
C297        C  0.90180930  0.66701218  0.96883300     0.84310
O298        O  0.69069784  0.58150501  0.99995608    -0.67800
O299        O  0.79712655  0.84302404  0.96736530    -0.87090
C300        C  0.72395393  0.57481864  0.97967325     0.85140
C301        C  0.78467956  0.58364786  0.04573170     1.06710
H302        H  0.77453696  0.71494542  0.95344178     0.38510
O303        O  0.78560665  0.72529480  0.97162641    -1.09740
O304        O  0.76240805  0.79099166  0.01928728    -0.66400
Ni305      Ni  0.72287810  0.75016782  0.99239330     1.26350
O306        O  0.76015332  0.61068486  0.97286006    -0.66620
O307        O  0.70998841  0.81855010  0.97013786    -0.78920
C308        C  0.61942960  0.73037294  0.00752482     0.84530
O309        O  0.65664323  0.76439086  0.01191162    -0.66090
Ni310      Ni  0.84369202  0.77715695  0.96788216     1.27450
Ni311      Ni  0.79936450  0.65975679  0.99623491     1.26060
H312        H  0.75238391  0.69698338  0.03275877     0.39070
O313        O  0.48364430  0.56061833  0.19827782    -0.80880
O314        O  0.54061988  0.33005555  0.26129300    -0.65570
O315        O  0.49162368  0.44889759  0.21261808    -1.12180
C316        C  0.35862236  0.45966923  0.28739081     1.06000
O317        O  0.45576248  0.29920558  0.25867506    -0.78780
O318        O  0.35705061  0.35640508  0.24990720    -0.66360
Ni319      Ni  0.54206059  0.50658546  0.20340781     1.34870
C320        C  0.34598309  0.38686630  0.22836012     0.84740
O321        O  0.58381767  0.37449833  0.21451638    -0.79320
O322        O  0.60880265  0.46114504  0.20651567    -0.89600
C323        C  0.50713537  0.29084951  0.26224406     0.84310
O324        O  0.54570793  0.52310479  0.24160571    -0.67800
O325        O  0.37401762  0.41061890  0.29511261    -0.87090
C326        C  0.56247659  0.49080049  0.26159828     0.85140
C327        C  0.62044856  0.40977563  0.20859948     1.06710
H328        H  0.47374415  0.42781192  0.27646437     0.38510
O329        O  0.46002978  0.41040549  0.26047634    -1.09740
O330        O  0.37899578  0.42337695  0.21852184    -0.66400
Ni331      Ni  0.43082109  0.46744686  0.23755895     1.26350
O332        O  0.56442278  0.43849876  0.25961883    -0.66620
O333        O  0.37469807  0.48478313  0.26466430    -0.78920
C334        C  0.43217360  0.56505887  0.20305430     0.84530
O335        O  0.40392350  0.52705534  0.21456402    -0.66090
Ni336      Ni  0.41490352  0.35557590  0.27650956     1.27450
Ni337      Ni  0.52056466  0.39130168  0.23733629     1.26060
H338        H  0.47839943  0.43374474  0.19585910     0.39070
O339        O  0.44312879  0.06107621  0.24430186    -0.80880
O340        O  0.40851200  0.82163255  0.22493076    -0.65570
O341        O  0.45326480  0.95045597  0.25688805    -1.12180
C342        C  0.61440658  0.94676226  0.20259601     1.06000
O343        O  0.49049119  0.79105900  0.20957237    -0.78780
O344        O  0.55495892  0.83687660  0.24810863    -0.66360
Ni345      Ni  0.40269869  0.00673363  0.26618944     1.34870
C346        C  0.56710795  0.87420217  0.26442922     0.84740
O347        O  0.37612580  0.87215275  0.27085305    -0.79320
O348        O  0.36297531  0.95470159  0.28968716    -0.89600
C349        C  0.43946421  0.78526883  0.21458506     0.84310
O350        O  0.34801759  0.00041981  0.23805447    -0.67800
O351        O  0.60678196  0.89523748  0.20535343    -0.87090
C352        C  0.33783205  0.96279352  0.22160282     0.85140
C353        C  0.35531753  0.90277981  0.28949750     1.06710
H354        H  0.47277124  0.91524361  0.19563390     0.38510
O355        O  0.48816122  0.90370448  0.21348612    -1.09740
O356        O  0.56010719  0.92561408  0.25816580    -0.66400
Ni357      Ni  0.51291583  0.96650292  0.23171351     1.26350
O358        O  0.37135469  0.92223697  0.21806828    -0.66620
O359        O  0.57564458  0.98143285  0.20720898    -0.78920
C360        C  0.49358325  0.06934258  0.24928780     0.84530
O361        O  0.52931041  0.03063524  0.24979289    -0.66090
Ni362      Ni  0.54418984  0.84733991  0.20881048     1.27450
Ni363      Ni  0.42946789  0.88704179  0.24101031     1.26060
H364        H  0.46845610  0.93815941  0.27465792     0.39070
O365        O  0.98257555  0.55766299  0.19952189    -0.80880
O366        O  0.93766590  0.32953382  0.14567313    -0.65570
O367        O  0.98080905  0.44591511  0.18997668    -1.12180
C368        C  0.10958784  0.46346405  0.11345911     1.06000
O369        O  0.02395769  0.30056157  0.14966567    -0.78780
O370        O  0.12061225  0.35755100  0.15585676    -0.66360
Ni371      Ni  0.92735090  0.50290607  0.19726480     1.34870
C372        C  0.13004212  0.38715018  0.17614235     0.84740
O373        O  0.89263270  0.37030332  0.19135524    -0.79320
O374        O  0.86375839  0.45649629  0.19707071    -0.89600
C375        C  0.97476275  0.29279789  0.14240875     0.84310
O376        O  0.91869327  0.52126693  0.15840346    -0.67800
O377        O  0.09916746  0.41396273  0.10802047    -0.87090
C378        C  0.90161427  0.48848088  0.14084998     0.85140
C379        C  0.85448274  0.40534190  0.19633958     1.06710
H380        H  0.99822282  0.42858888  0.12678087     0.38510
O381        O  0.01369807  0.41063609  0.14338526    -1.09740
O382        O  0.09490684  0.42272833  0.18452848    -0.66400
Ni383      Ni  0.03979037  0.46684867  0.16391781     1.26350
O384        O  0.90740399  0.43620975  0.14410996    -0.66620
O385        O  0.09372611  0.48667533  0.13564216    -0.78920
C386        C  0.03398170  0.56227422  0.19503431     0.84530
O387        O  0.06382074  0.52539350  0.18446595    -0.66090
Ni388      Ni  0.06236055  0.35738418  0.12936998     1.27450
Ni389      Ni  0.95486375  0.38893163  0.16772779     1.26060
H390        H  0.99544565  0.43007260  0.20727192     0.39070
O391        O  0.01824647  0.05857992  0.13732274    -0.80880
O392        O  0.05871954  0.82058996  0.16760615    -0.65570
O393        O  0.01025196  0.95085821  0.12902265    -1.12180
C394        C  0.84779022  0.94908204  0.18166425     1.06000
O395        O  0.97778546  0.79276524  0.18533568    -0.78780
O396        O  0.91485249  0.83926366  0.14310658    -0.66360
Ni397      Ni  0.05903799  0.00591017  0.11683537     1.34870
C398        C  0.89993031  0.87651478  0.12489371     0.84740
O399        O  0.08991379  0.87174931  0.11893462    -0.79320
O400        O  0.09889024  0.95406580  0.09522360    -0.89600
C401        C  0.02871017  0.78514889  0.18022024     0.84310
O402        O  0.11503519  0.99752680  0.14455545    -0.67800
O403        O  0.85758054  0.89762769  0.18112580    -0.87090
C404        C  0.12574191  0.96070667  0.16357145     0.85140
C405        C  0.10836829  0.90204981  0.09819583     1.06710
H406        H  0.99124240  0.91579462  0.19204410     0.38510
O407        O  0.97642854  0.90474994  0.17471611    -1.09740
O408        O  0.90397549  0.92797899  0.12864939    -0.66400
Ni409      Ni  0.94975949  0.96825920  0.15312369     1.26350
O410        O  0.09295987  0.92119304  0.16960120    -0.66620
O411        O  0.88586600  0.98361207  0.17668856    -0.78920
C412        C  0.96871991  0.07088327  0.13069453     0.84530
O413        O  0.93245803  0.03416903  0.13171937    -0.66090
Ni414      Ni  0.92214692  0.84943467  0.18193711     1.27450
Ni415      Ni  0.03602708  0.88704898  0.14820336     1.26060
H416        H  0.99557586  0.93881881  0.11189707     0.39070
C417        C  0.99697840  0.15895348  0.10976461    -0.12260
C418        C  0.95519675  0.12874132  0.12334477     0.04750
C419        C  0.91040090  0.15661055  0.13587343    -0.07550
C420        C  0.91477002  0.21309267  0.13970469    -0.08290
C421        C  0.96182484  0.24104534  0.13033099    -0.02840
C422        C  0.00067649  0.21527887  0.11292272     0.03970
N423        N  0.04548931  0.24502409  0.09982019     0.66480
H424        H  0.02958289  0.13759806  0.09870988     0.15380
H425        H  0.88359647  0.23417383  0.15181827     0.15090
N426        N  0.86296472  0.12787554  0.14658201     0.74180
O427        O  0.09110530  0.22089194  0.09537967    -0.39270
O428        O  0.03799029  0.29398075  0.09020121    -0.39210
O429        O  0.83856227  0.14306941  0.16836805    -0.39910
O430        O  0.83979837  0.09422111  0.13174494    -0.39980
C431        C  0.03644696  0.70698135  0.21443161    -0.12260
C432        C  0.05167766  0.73048093  0.18818051     0.04750
C433        C  0.07773607  0.69733678  0.16831819    -0.07550
C434        C  0.08268689  0.64053183  0.17436924    -0.08290
C435        C  0.05758423  0.61635169  0.19833245    -0.02840
C436        C  0.03871230  0.64975015  0.21978077     0.03970
N437        N  0.01824538  0.62592392  0.24596064     0.66480
H438        H  0.01814555  0.73308379  0.22984919     0.15380
H439        H  0.09722622  0.61454012  0.15798503     0.15090
N440        N  0.09172585  0.71835424  0.14058676     0.74180
O441        O  0.03278702  0.57758417  0.25418537    -0.39270
O442        O  0.98905226  0.65445543  0.26201468    -0.39210
O443        O  0.05753803  0.74794497  0.12664870    -0.39910
O444        O  0.13234681  0.69743552  0.12795255    -0.39980
C445        C  0.18183839  0.96145286  0.20754546    -0.12260
C446        C  0.18005177  0.96332363  0.17830758     0.04750
C447        C  0.23112603  0.96549199  0.16333102    -0.07550
C448        C  0.28149073  0.96492847  0.17775985    -0.08290
C449        C  0.28320899  0.96515960  0.20694372    -0.02840
C450        C  0.23210670  0.96373079  0.22195588     0.03970
N451        N  0.23010877  0.96263930  0.25189315     0.66480
H452        H  0.14354126  0.95948570  0.21935110     0.15380
H453        H  0.31981665  0.96534208  0.16594431     0.15090
N454        N  0.23316808  0.96617859  0.13343228     0.74180
O455        O  0.25206594  0.00035719  0.26456812    -0.39270
O456        O  0.19731292  0.93104312  0.26518243    -0.39210
O457        O  0.21174659  0.00620697  0.11933115    -0.39910
O458        O  0.26634487  0.93405541  0.12145664    -0.39980
C459        C  0.70741613  0.97776041  0.21617667    -0.12260
C460        C  0.67163922  0.96470671  0.19483211     0.04750
C461        C  0.69457686  0.95632183  0.16804119    -0.07550
C462        C  0.75236163  0.95716236  0.16401108    -0.08290
C463        C  0.78855475  0.96659214  0.18574570    -0.02840
C464        C  0.76544014  0.97894131  0.21209332     0.03970
N465        N  0.79992977  0.98945033  0.23525439     0.66480
H466        H  0.69006965  0.98377219  0.23673981     0.15380
H467        H  0.76977428  0.94752199  0.14388647     0.15090
N468        N  0.66011333  0.94478455  0.14502036     0.74180
O469        O  0.78145258  0.98412148  0.25995260    -0.39270
O470        O  0.84748745  0.00816626  0.23117978    -0.39210
O471        O  0.61069880  0.96186627  0.14431648    -0.39910
O472        O  0.68014340  0.92156414  0.12412234    -0.39980
C473        C  0.77146640  0.38945864  0.22608731    -0.12260
C474        C  0.79608154  0.38898575  0.19954573     0.04750
C475        C  0.76171934  0.38773118  0.17599944    -0.07550
C476        C  0.70401628  0.39048360  0.17956654    -0.08290
C477        C  0.67950007  0.39273312  0.20610090    -0.02840
C478        C  0.71387387  0.39042092  0.22967896     0.03970
N479        N  0.69103480  0.39182584  0.25734233     0.66480
H480        H  0.79735319  0.39140918  0.24413375     0.15380
H481        H  0.67803897  0.39286500  0.16141676     0.15090
N482        N  0.78466121  0.38650583  0.14828840     0.74180
O483        O  0.65294894  0.35972892  0.26481861    -0.39270
O484        O  0.71452125  0.41819993  0.27551244    -0.39210
O485        O  0.82437479  0.35397502  0.14332932    -0.39910
O486        O  0.76030879  0.41129381  0.12807935    -0.39980
C487        C  0.28638737  0.38624256  0.18618389    -0.12260
C488        C  0.29096023  0.38139504  0.21522714     0.04750
C489        C  0.24168990  0.37729331  0.23153367    -0.07550
C490        C  0.19000005  0.37867721  0.21852073    -0.08290
C491        C  0.18555695  0.38192008  0.18939808    -0.02840
C492        C  0.23491421  0.38562184  0.17313943     0.03970
N493        N  0.23383045  0.39245056  0.14334680     0.66480
H494        H  0.32331576  0.39057423  0.17340470     0.15380
H495        H  0.15294452  0.37703569  0.23133844     0.15090
N496        N  0.24292686  0.37486088  0.26139479     0.74180
O497        O  0.26146041  0.43018030  0.13116770    -0.39270
O498        O  0.21724242  0.35380972  0.12935524    -0.39210
O499        O  0.21573502  0.41012573  0.27463781    -0.39910
O500        O  0.26062117  0.33161097  0.27434500    -0.39980
C501        C  0.54722727  0.21271057  0.23965599    -0.12260
C502        C  0.52672444  0.23417990  0.26431033     0.04750
C503        C  0.50522767  0.19920511  0.28588463    -0.07550
C504        C  0.49695450  0.14420970  0.28054576    -0.08290
C505        C  0.51061244  0.12439308  0.25448258    -0.02840
C506        C  0.53869849  0.15766145  0.23412984     0.03970
N507        N  0.55471979  0.13815518  0.20725369     0.66480
H508        H  0.56310696  0.24054733  0.22320552     0.15380
H509        H  0.47766269  0.11713874  0.29630361     0.15090
N510        N  0.48781946  0.22019687  0.31221354     0.74180
O511        O  0.59310220  0.16109181  0.19333442    -0.39270
O512        O  0.52774914  0.10168355  0.19612010    -0.39210
O513        O  0.50794942  0.26366733  0.32058727    -0.39910
O514        O  0.45496091  0.19348012  0.32808132    -0.39980
C515        C  0.38789267  0.64139281  0.22499986    -0.12260
C516        C  0.40725078  0.62033498  0.19995602     0.04750
C517        C  0.42257196  0.65664570  0.17747454    -0.07550
C518        C  0.42657068  0.71272137  0.18224698    -0.08290
C519        C  0.41687297  0.73209221  0.20892498    -0.02840
C520        C  0.39532852  0.69661999  0.23054183     0.03970
N521        N  0.38817872  0.71293025  0.25891169     0.66480
H522        H  0.37694864  0.61282661  0.24219484     0.15380
H523        H  0.44180432  0.74081338  0.16575684     0.15090
N524        N  0.43813615  0.63648780  0.15070158     0.74180
O525        O  0.35704834  0.68583993  0.27555767    -0.39270
O526        O  0.41961333  0.74723011  0.26883300    -0.39210
O527        O  0.42310425  0.58972946  0.14393329    -0.39910
O528        O  0.46367143  0.66677869  0.13290934    -0.39980
C529        C  0.83989009  0.81368641  0.10086916    -0.12260
C530        C  0.87490149  0.85893211  0.09901565     0.04750
C531        C  0.88651271  0.88458064  0.07251599    -0.07550
C532        C  0.86566555  0.86250216  0.04859606    -0.08290
C533        C  0.83082727  0.81726823  0.05051300    -0.02840
C534        C  0.81654610  0.79362969  0.07703278     0.03970
N535        N  0.77956154  0.74869931  0.08016577     0.66480
H536        H  0.82978673  0.79431880  0.12110601     0.15380
H537        H  0.87631434  0.88123395  0.02828124     0.15090
N538        N  0.92073315  0.93168450  0.06930950     0.74180
O539        O  0.79320386  0.70591849  0.09475570    -0.39270
O540        O  0.72986345  0.75636593  0.07357845    -0.39210
O541        O  0.96280018  0.93002771  0.05361564    -0.39910
O542        O  0.90258125  0.97779391  0.07678715    -0.39980
C543        C  0.89089642  0.50078211  0.08953353    -0.12260
C544        C  0.87140335  0.51138038  0.11643524     0.04750
C545        C  0.82056421  0.53948410  0.11971434    -0.07550
C546        C  0.79220656  0.55939115  0.09609244    -0.08290
C547        C  0.81295182  0.55215944  0.06897153    -0.02840
C548        C  0.86202939  0.52024217  0.06561645     0.03970
N549        N  0.88183714  0.50518045  0.03858193     0.66480
H550        H  0.92849453  0.47649884  0.08723037     0.15380
H551        H  0.75435483  0.58285354  0.09920388     0.15090
N552        N  0.79588175  0.54645994  0.14672199     0.74180
O553        O  0.93239077  0.49484817  0.03459663    -0.39270
O554        O  0.84839568  0.49404266  0.01999575    -0.39210
O555        O  0.82118491  0.57091537  0.16495486    -0.39910
O556        O  0.74559267  0.53655292  0.15072575    -0.39980
C557        C  0.19183302  0.80320562  0.05309162    -0.12260
C558        C  0.17940696  0.82599536  0.02634882     0.04750
C559        C  0.15012738  0.87677440  0.02379277    -0.07550
C560        C  0.12963209  0.90062279  0.04781879    -0.08290
C561        C  0.13854721  0.87634649  0.07471514    -0.02840
C562        C  0.17309618  0.82838437  0.07752448     0.03970
N563        N  0.19234920  0.80668856  0.10431029     0.66480
H564        H  0.21706159  0.76584684  0.05480049     0.15380
H565        H  0.10492099  0.93822101  0.04520451     0.15090
N566        N  0.14302632  0.90636279  0.99728656     0.74180
O567        O  0.21739911  0.76053635  0.10628083    -0.39270
O568        O  0.19343960  0.83699873  0.12480907    -0.39210
O569        O  0.12371661  0.88301580  0.97689105    -0.39910
O570        O  0.14959596  0.95782480  0.99524092    -0.39980
C571        C  0.15675895  0.57883723  0.06391441    -0.12260
C572        C  0.20504996  0.55513085  0.05299947     0.04750
C573        C  0.22140108  0.50075315  0.06158528    -0.07550
C574        C  0.18813662  0.47135919  0.08082570    -0.08290
C575        C  0.14100969  0.49574989  0.09251370    -0.02840
C576        C  0.12405007  0.54968962  0.08349583     0.03970
N577        N  0.07249244  0.57394098  0.09245015     0.66480
H578        H  0.14376475  0.62000322  0.05651473     0.15380
H579        H  0.19958580  0.42923560  0.08706840     0.15090
N580        N  0.26973619  0.47390789  0.05043277     0.74180
O581        O  0.06691310  0.62565284  0.09312016    -0.39270
O582        O  0.03029913  0.54487209  0.09555601    -0.39210
O583        O  0.31492163  0.49830277  0.04881080    -0.39910
O584        O  0.26961691  0.42286293  0.04669475    -0.39980
C585        C  0.47123967  0.76518236  0.01871558    -0.12260
C586        C  0.45227438  0.74891210  0.99316340     0.04750
C587        C  0.48866435  0.74070820  0.97065964    -0.07550
C588        C  0.54473469  0.74169088  0.97558197    -0.08290
C589        C  0.56399817  0.74991490  0.00228925    -0.02840
C590        C  0.52756969  0.76495503  0.02395912     0.03970
N591        N  0.54579965  0.77531004  0.05163671     0.66480
H592        H  0.44203593  0.77178025  0.03557343     0.15380
H593        H  0.57370369  0.73172290  0.95909298     0.15090
N594        N  0.46941591  0.72812562  0.94352031     0.74180
O595        O  0.51500168  0.80197236  0.06780019    -0.39270
O596        O  0.59076244  0.75540555  0.06083043    -0.39210
O597        O  0.42263456  0.74511627  0.93535335    -0.39910
O598        O  0.50081167  0.70382486  0.92668465    -0.39980
C599        C  0.97458965  0.64860347  0.93524519    -0.12260
C600        C  0.95495526  0.64170410  0.96279744     0.04750
C601        C  0.99127212  0.62554752  0.98467586    -0.07550
C602        C  0.04720797  0.62083205  0.97817773    -0.08290
C603        C  0.06724588  0.63809435  0.95176230    -0.02840
C604        C  0.03112006  0.64791362  0.92939966     0.03970
N605        N  0.05126959  0.66036923  0.90141806     0.66480
H606        H  0.94595444  0.66029784  0.91879408     0.15380
H607        H  0.07607349  0.61248784  0.99493672     0.15090
N608        N  0.97419361  0.62178662  0.01373102     0.74180
O609        O  0.01907419  0.67945486  0.88273819    -0.39270
O610        O  0.10019185  0.64798021  0.89461161    -0.39210
O611        O  0.92447540  0.61643312  0.02082760    -0.39910
O612        O  0.00929953  0.62339382  0.03273091    -0.39980
C613        C  0.34695845  0.49761420  0.93948965    -0.12260
C614        C  0.30126878  0.51429904  0.95547329     0.04750
C615        C  0.26069746  0.47478469  0.96257730    -0.07550
C616        C  0.26599401  0.42099492  0.95320658    -0.08290
C617        C  0.31011388  0.40471245  0.93604780    -0.02840
C618        C  0.35176307  0.44378425  0.92950698     0.03970
N619        N  0.39952883  0.42956077  0.91317843     0.66480
H620        H  0.37931703  0.52668390  0.93481446     0.15380
H621        H  0.23312154  0.39260877  0.95810835     0.15090
N622        N  0.21307591  0.48843118  0.97900245     0.74180
O623        O  0.42084423  0.46514429  0.89646288    -0.39270
O624        O  0.42446619  0.38390761  0.91790632    -0.39210
O625        O  0.17956492  0.52496538  0.96966538    -0.39910
O626        O  0.19744348  0.45527536  0.99850812    -0.39980
C627        C  0.32344107  0.92676306  0.95666040    -0.12260
C628        C  0.29268982  0.90139432  0.93651376     0.04750
C629        C  0.26887812  0.93435915  0.91461853    -0.07550
C630        C  0.27235298  0.99183796  0.91480773    -0.08290
C631        C  0.29868230  0.01771881  0.93621820    -0.02840
C632        C  0.32673211  0.98488627  0.95694755     0.03970
N633        N  0.35585463  0.00921852  0.97895741     0.66480
H634        H  0.34161734  0.90115485  0.97340487     0.15380
H635        H  0.25175210  0.01705696  0.89868479     0.15090
N636        N  0.23936148  0.91027918  0.89270504     0.74180
O637        O  0.37025943  0.98021769  0.00032979    -0.39270
O638        O  0.37094526  0.05858724  0.97637742    -0.39210
O639        O  0.20214170  0.93769660  0.87977427    -0.39910
O640        O  0.25328917  0.86327063  0.88462398    -0.39980
C641        C  0.70600131  0.42229234  0.96256938    -0.12260
C642        C  0.72109086  0.42241397  0.93425960     0.04750
C643        C  0.73599402  0.47359985  0.92068902    -0.07550
C644        C  0.73667721  0.52205694  0.93586790    -0.08290
C645        C  0.72132417  0.52215716  0.96419314    -0.02840
C646        C  0.70564942  0.47090901  0.97758221     0.03970
N647        N  0.69204530  0.46633526  0.00679008     0.66480
H648        H  0.69553248  0.38355450  0.97336889     0.15380
H649        H  0.74863009  0.56047766  0.92523991     0.15090
N650        N  0.75202948  0.47739191  0.89172541     0.74180
O651        O  0.65220632  0.43730070  0.01529659    -0.39270
O652        O  0.72543480  0.48222258  0.02431860    -0.39210
O653        O  0.72435874  0.45416358  0.87394658    -0.39910
O654        O  0.78781889  0.51144928  0.88330169    -0.39980
C655        C  0.76086260  0.94902212  0.98288798    -0.12260
C656        C  0.73173342  0.91670651  0.96493798     0.04750
C657        C  0.69797620  0.94475110  0.94452052    -0.07550
C658        C  0.69889016  0.00352377  0.94127871    -0.08290
C659        C  0.73158858  0.03515954  0.95810404    -0.02840
C660        C  0.76103723  0.00706455  0.97999664     0.03970
N661        N  0.79306620  0.03678497  0.99892522     0.66480
H662        H  0.78552915  0.92834088  0.99907271     0.15380
H663        H  0.67641798  0.02455860  0.92440414     0.15090
N664        N  0.66537059  0.91495850  0.92592537     0.74180
O665        O  0.77761874  0.08423492  0.00578578    -0.39270
O666        O  0.83439141  0.01395454  0.01068051    -0.39210
O667        O  0.64232505  0.87108114  0.93439608    -0.39910
O668        O  0.65365860  0.93599815  0.90208284    -0.39980
C669        C  0.47267102  0.20340819  0.91802009    -0.12260
C670        C  0.45285323  0.18258968  0.89353510     0.04750
C671        C  0.48938687  0.15935235  0.87401406    -0.07550
C672        C  0.54581258  0.16471432  0.87802268    -0.08290
C673        C  0.56469698  0.19407655  0.90016340    -0.02840
C674        C  0.52857945  0.21033651  0.92146495     0.03970
N675        N  0.54765482  0.23618737  0.94573154     0.66480
H676        H  0.44387355  0.21921554  0.93329995     0.15380
H677        H  0.57480875  0.15110267  0.86229741     0.15090
N678        N  0.47094873  0.13434147  0.84934788     0.74180
O679        O  0.51624033  0.26855285  0.95865160    -0.39270
O680        O  0.59418464  0.22335434  0.95573303    -0.39210
O681        O  0.42586684  0.14869019  0.83819630    -0.39910
O682        O  0.50152836  0.09947515  0.83762562    -0.39980
C683        C  0.99074754  0.28003091  0.90769540    -0.12260
C684        C  0.95900773  0.29258943  0.93098940     0.04750
C685        C  0.98386439  0.30835628  0.95558021    -0.07550
C686        C  0.04151026  0.30502500  0.95702346    -0.08290
C687        C  0.07267914  0.28492500  0.93482981    -0.02840
C688        C  0.04737300  0.27339138  0.90951932     0.03970
N689        N  0.07719229  0.24884712  0.88680397     0.66480
H690        H  0.97053079  0.26829647  0.88901138     0.15380
H691        H  0.06175838  0.31307586  0.97625333     0.15090
N692        N  0.95148177  0.32397183  0.97944975     0.74180
O693        O  0.05263884  0.21938553  0.87030383    -0.39270
O694        O  0.12742413  0.25798465  0.88231284    -0.39210
O695        O  0.90183144  0.33941763  0.97680377    -0.39910
O696        O  0.97346073  0.32646467  0.00296460    -0.39980
C697        C  0.63535325  0.51342228  0.32996546    -0.12260
C698        C  0.63760958  0.57102234  0.32860074     0.04750
C699        C  0.60844384  0.60209124  0.30771364    -0.07550
C700        C  0.58194215  0.57420671  0.28720401    -0.08290
C701        C  0.58293676  0.51620763  0.28701372    -0.02840
C702        C  0.60684726  0.48550384  0.30996152     0.03970
N703        N  0.60136800  0.42684236  0.31394253     0.66480
H704        H  0.65563541  0.49010469  0.34688856     0.15380
H705        H  0.56200064  0.59862101  0.27057464     0.15090
N706        N  0.60538380  0.66159374  0.30667065     0.74180
O707        O  0.64028412  0.39774543  0.32442731    -0.39270
O708        O  0.55433871  0.40626684  0.31314303    -0.39210
O709        O  0.64480932  0.68929425  0.31461817    -0.39910
O710        O  0.56426532  0.68695240  0.29601482    -0.39980
C711        C  0.66286501  0.81546232  0.32068747    -0.12260
C712        C  0.63166465  0.82454243  0.34497699     0.04750
C713        C  0.58002150  0.85246315  0.34253974    -0.07550
C714        C  0.56018868  0.86821921  0.31590553    -0.08290
C715        C  0.59091582  0.85774943  0.29172712    -0.02840
C716        C  0.64339143  0.83187933  0.29410174     0.03970
N717        N  0.67784898  0.82297029  0.27001996     0.66480
H718        H  0.70277135  0.79488201  0.32239174     0.15380
H719        H  0.52051361  0.88922075  0.31402157     0.15090
N720        N  0.54818001  0.86693205  0.36666689     0.74180
O721        O  0.71221480  0.78314782  0.27032637    -0.39270
O722        O  0.67927816  0.85855595  0.24990990    -0.39210
O723        O  0.57112064  0.88811721  0.38676504    -0.39910
O724        O  0.49633221  0.86632384  0.36618452    -0.39980
C725        C  0.32326212  0.47120030  0.33514345    -0.12260
C726        C  0.32249480  0.48922893  0.30681147     0.04750
C727        C  0.29041616  0.53649653  0.29846406    -0.07550
C728        C  0.26485408  0.56726851  0.31904939    -0.08290
C729        C  0.26849628  0.55062675  0.34738232    -0.02840
C730        C  0.29629967  0.50095400  0.35548756     0.03970
N731        N  0.29509439  0.47827084  0.38375150     0.66480
H732        H  0.34633073  0.43426220  0.34185354     0.15380
H733        H  0.24120199  0.60422548  0.31293424     0.15090
N734        N  0.28126763  0.55246276  0.26956573     0.74180
O735        O  0.28364357  0.42821429  0.38852933    -0.39270
O736        O  0.31504188  0.50433056  0.40306368    -0.39210
O737        O  0.27193629  0.51628812  0.25244967    -0.39910
O738        O  0.27232885  0.60252151  0.26220872    -0.39980
C739        C  0.32840578  0.90218440  0.33935072    -0.12260
C740        C  0.32390953  0.87742106  0.31366919     0.04750
C741        C  0.29288665  0.82874428  0.31272981    -0.07550
C742        C  0.27192286  0.80415853  0.33795710    -0.08290
C743        C  0.27931563  0.82791594  0.36360212    -0.02840
C744        C  0.30583326  0.87876043  0.36410839     0.03970
N745        N  0.30954425  0.90750749  0.38943399     0.66480
H746        H  0.35056159  0.94014139  0.34032416     0.15380
H747        H  0.25001596  0.76590776  0.33772504     0.15090
N748        N  0.28068916  0.80476213  0.28677600     0.74180
O749        O  0.34905182  0.93906073  0.39285459    -0.39270
O750        O  0.26966859  0.90774743  0.40656574    -0.39210
O751        O  0.26596680  0.75530077  0.28674091    -0.39910
O752        O  0.27537855  0.83484647  0.26468467    -0.39980
C753        C  0.97738774  0.71461285  0.41951202    -0.12260
C754        C  0.01460966  0.73642794  0.39965598     0.04750
C755        C  0.99559955  0.76500113  0.37510710    -0.07550
C756        C  0.93902983  0.76679445  0.37009607    -0.08290
C757        C  0.90274041  0.73935052  0.38863026    -0.02840
C758        C  0.92126801  0.71571567  0.41439757     0.03970
N759        N  0.88419790  0.69023982  0.43474826     0.66480
H760        H  0.99264255  0.69420673  0.43858393     0.15380
H761        H  0.92402685  0.78448399  0.35037493     0.15090
N762        N  0.03262824  0.78748935  0.35399030     0.74180
O763        O  0.90182317  0.65398783  0.45244858    -0.39270
O764        O  0.83486389  0.70705531  0.43673939    -0.39210
O765        O  0.07573919  0.76110513  0.34725316    -0.39910
O766        O  0.01845058  0.83000868  0.33932654    -0.39980
C767        C  0.44136403  0.65505216  0.46838730    -0.12260
C768        C  0.41301605  0.63438134  0.44612454     0.04750
C769        C  0.44264803  0.60770418  0.42499340    -0.07550
C770        C  0.49997876  0.61019630  0.42444418    -0.08290
C771        C  0.52698524  0.64159780  0.44344151    -0.02840
C772        C  0.49852890  0.65961695  0.46720164     0.03970
N773        N  0.52646675  0.68614894  0.48888059     0.66480
H774        H  0.41823368  0.67346203  0.48513265     0.15380
H775        H  0.52227949  0.59546990  0.40646882     0.15090
N776        N  0.41593942  0.58612890  0.40164331     0.74180
O777        O  0.50014736  0.71685791  0.50508318    -0.39270
O778        O  0.57673233  0.67563755  0.49334386    -0.39210
O779        O  0.38491812  0.61716789  0.38658632    -0.39910
O780        O  0.43288584  0.54090897  0.39249547    -0.39980
C781        C  0.18900078  0.43753425  0.48512181    -0.12260
C782        C  0.18086968  0.39335674  0.46779816     0.04750
C783        C  0.17145435  0.40595956  0.43915276    -0.07550
C784        C  0.16916516  0.46163364  0.42901175    -0.08290
C785        C  0.17795388  0.50587164  0.44622386    -0.02840
C786        C  0.18813313  0.49327868  0.47482082     0.03970
N787        N  0.19598151  0.53603174  0.49386695     0.66480
H788        H  0.19614726  0.42839710  0.50712200     0.15380
H789        H  0.16251613  0.47035044  0.40693952     0.15090
N790        N  0.16281372  0.36354093  0.42007517     0.74180
O791        O  0.22566133  0.52681399  0.51500580    -0.39270
O792        O  0.16834612  0.58066342  0.49154535    -0.39210
O793        O  0.12702910  0.37086720  0.40142005    -0.39910
O794        O  0.19689023  0.32380552  0.41849724    -0.39980
C795        C  0.15186034  0.92525897  0.43896134    -0.12260
C796        C  0.17546191  0.88934382  0.45964502     0.04750
C797        C  0.19728043  0.91156875  0.48357734    -0.07550
C798        C  0.19989436  0.96902894  0.48481453    -0.08290
C799        C  0.18132539  0.00509399  0.46294320    -0.02840
C800        C  0.15453267  0.98321435  0.44015665     0.03970
N801        N  0.13392448  0.01816939  0.41724916     0.66480
H802        H  0.13565526  0.90791209  0.42056476     0.15380
H803        H  0.21930466  0.98602573  0.50249634     0.15090
N804        N  0.21969199  0.87635802  0.50596024     0.74180
O805        O  0.12686467  0.99874149  0.39374775    -0.39270
O806        O  0.11847030  0.06726529  0.42081390    -0.39210
O807        O  0.20253238  0.82805493  0.51062683    -0.39910
O808        O  0.25379259  0.89470039  0.52247911    -0.39980
C809        C  0.70420491  0.49488147  0.43588116    -0.12260
C810        C  0.75309028  0.51671751  0.42446939     0.04750
C811        C  0.80095013  0.48193036  0.42447853    -0.07550
C812        C  0.79797901  0.42668120  0.43547086    -0.08290
C813        C  0.74843609  0.40460870  0.44613757    -0.02840
C814        C  0.70122523  0.43986120  0.44628444     0.03970
N815        N  0.64990240  0.42116130  0.45772664     0.66480
H816        H  0.66691845  0.52025265  0.43577971     0.15380
H817        H  0.83495645  0.40091280  0.43615172     0.15090
N818        N  0.85309905  0.50223065  0.41444476     0.74180
O819        O  0.62906763  0.44391296  0.47855634    -0.39270
O820        O  0.62005102  0.39219894  0.44338766    -0.39210
O821        O  0.86669176  0.55079784  0.41880527    -0.39910
O822        O  0.88838839  0.46976678  0.40423103    -0.39980
C823        C  0.74140465  0.98123516  0.46200935    -0.12260
C824        C  0.75615368  0.01817919  0.43972520     0.04750
C825        C  0.77423887  0.99601899  0.41428263    -0.07550
C826        C  0.77300336  0.93800664  0.41157265    -0.08290
C827        C  0.75443073  0.90179042  0.43345619    -0.02840
C828        C  0.74068850  0.92377049  0.45937263     0.03970
N829        N  0.72326515  0.88847491  0.48277071     0.66480
H830        H  0.72711135  0.99788330  0.48134571     0.15380
H831        H  0.78305634  0.92121264  0.39163005     0.15090
N832        N  0.79023883  0.03134913  0.39059481     0.74180
O833        O  0.69094044  0.90670198  0.50112603    -0.39270
O834        O  0.74284414  0.84000406  0.48618259    -0.39210
O835        O  0.80815483  0.07883272  0.39386935    -0.39910
O836        O  0.79068988  0.01361594  0.36635656    -0.39980
C837        C  0.95015766  0.16528748  0.47320024    -0.12260
C838        C  0.91430387  0.16745660  0.49611088     0.04750
C839        C  0.93395537  0.16266158  0.52368054    -0.07550
C840        C  0.99074971  0.16070477  0.52728495    -0.08290
C841        C  0.02649450  0.16504125  0.50429746    -0.02840
C842        C  0.00679752  0.16528723  0.47677721     0.03970
N843        N  0.04247123  0.16925065  0.45239543     0.66480
H844        H  0.93371246  0.16915211  0.45231758     0.15380
H845        H  0.00739179  0.16033098  0.54809606     0.15090
N846        N  0.89787069  0.16413230  0.54788734     0.74180
O847        O  0.02574197  0.15422784  0.42930722    -0.39270
O848        O  0.08850343  0.19194747  0.45295838    -0.39210
O849        O  0.84712891  0.15573498  0.54613179    -0.39910
O850        O  0.91720989  0.17104169  0.57165425    -0.39980
C851        C  0.43170499  0.30036162  0.46863676    -0.12260
C852        C  0.40504200  0.26917036  0.44949761     0.04750
C853        C  0.43318251  0.25259274  0.42540042    -0.07550
C854        C  0.49014778  0.25817650  0.42389732    -0.08290
C855        C  0.51854017  0.27760444  0.44647847    -0.02840
C856        C  0.48882781  0.30370040  0.46777801     0.03970
N857        N  0.51554159  0.32473848  0.49117097     0.66480
H858        H  0.40949981  0.31434129  0.48679641     0.15380
H859        H  0.51304669  0.24099819  0.40673092     0.15090
N860        N  0.40524009  0.22594759  0.40380717     0.74180
O861        O  0.50721490  0.37447280  0.49666858    -0.39270
O862        O  0.53544201  0.29152081  0.50968514    -0.39210
O863        O  0.35502463  0.23657520  0.39926627    -0.39910
O864        O  0.43129462  0.19398215  0.38814818    -0.39980
C865        C  0.28465997  0.05746559  0.59637167    -0.12260
C866        C  0.33500037  0.02792727  0.59737209     0.04750
C867        C  0.36387356  0.01958285  0.57197971    -0.07550
C868        C  0.34406030  0.04500188  0.54691576    -0.08290
C869        C  0.29465027  0.07624323  0.54621094    -0.02840
C870        C  0.26387805  0.08062525  0.57126063     0.03970
N871        N  0.21294459  0.11121425  0.57200953     0.66480
H872        H  0.26181741  0.06413096  0.61551948     0.15380
H873        H  0.36720470  0.03976879  0.52773245     0.15090
N874        N  0.41388392  0.98706792  0.57121063     0.74180
O875        O  0.16922870  0.08838599  0.56560353    -0.39270
O876        O  0.20993510  0.15527631  0.58477334    -0.39210
O877        O  0.41396962  0.93751984  0.58054476    -0.39910
O878        O  0.45378906  0.00342408  0.55607921    -0.39980
C879        C  0.65860663  0.03332618  0.56921849    -0.12260
C880        C  0.60881826  0.05241079  0.58049505     0.04750
C881        C  0.57895492  0.09547951  0.56618427    -0.07550
C882        C  0.59917589  0.11745374  0.54070030    -0.08290
C883        C  0.64943556  0.09892729  0.52944015    -0.02840
C884        C  0.68044162  0.05727064  0.54445672     0.03970
N885        N  0.73335464  0.03786331  0.53502658     0.66480
H886        H  0.68106228  0.99972269  0.57986230     0.15380
H887        H  0.57531402  0.14972999  0.52967219     0.15090
N888        N  0.52661793  0.11526347  0.57622903     0.74180
O889        O  0.74359183  0.98664180  0.53539553    -0.39270
O890        O  0.77319095  0.07016994  0.53425827    -0.39210
O891        O  0.52391950  0.14024917  0.59857621    -0.39910
O892        O  0.48638831  0.11937858  0.55992306    -0.39980
C893        C  0.66708494  0.38359788  0.60068815    -0.12260
C894        C  0.61837756  0.41485825  0.59661932     0.04750
C895        C  0.59418191  0.41710466  0.56999465    -0.07550
C896        C  0.61814037  0.38650169  0.54855435    -0.08290
C897        C  0.66682700  0.35480960  0.55271299    -0.02840
C898        C  0.69144597  0.35360834  0.57934180     0.03970
N899        N  0.73925370  0.31968136  0.58575554     0.66480
H900        H  0.68547605  0.38091405  0.62113834     0.15380
H901        H  0.59902632  0.38826211  0.52833303     0.15090
N902        N  0.54464688  0.44869857  0.56455270     0.74180
O903        O  0.77664606  0.33766226  0.60049110    -0.39270
O904        O  0.74007320  0.26922055  0.58066277    -0.39210
O905        O  0.54368551  0.50006390  0.56733617    -0.39910
O906        O  0.50543566  0.42737889  0.55243581    -0.39980
C907        C  0.36765827  0.36609952  0.58251477    -0.12260
C908        C  0.33875350  0.40631221  0.59695143     0.04750
C909        C  0.28098797  0.41225886  0.59509091    -0.07550
C910        C  0.25403971  0.37819634  0.57747345    -0.08290
C911        C  0.28323744  0.33931223  0.56208672    -0.02840
C912        C  0.34055711  0.33183793  0.56522552     0.03970
N913        N  0.37148257  0.28924377  0.55175808     0.66480
H914        H  0.41187176  0.36161386  0.58468908     0.15380
H915        H  0.20998591  0.38321642  0.57499143     0.15090
N916        N  0.24902163  0.45144850  0.61068133     0.74180
O917        O  0.42090565  0.29686629  0.54442677    -0.39270
O918        O  0.35254528  0.24143938  0.55099415    -0.39210
O919        O  0.27084208  0.49238545  0.62071914    -0.39910
O920        O  0.19778086  0.44600562  0.61387512    -0.39980
C921        C  0.46719231  0.72316651  0.60850622    -0.12260
C922        C  0.50752498  0.68861961  0.62127285     0.04750
C923        C  0.54043642  0.70871408  0.64202409    -0.07550
C924        C  0.52720793  0.75982981  0.65231235    -0.08290
C925        C  0.48349422  0.79260522  0.64136490    -0.02840
C926        C  0.45429567  0.77482745  0.61848676     0.03970
N927        N  0.41134224  0.80767362  0.60532818     0.66480
H928        H  0.44174690  0.70755291  0.59251006     0.15380
H929        H  0.55177328  0.77425355  0.66895080     0.15090
N930        N  0.58590668  0.67707660  0.65352923     0.74180
O931        O  0.41147057  0.81464628  0.57909036    -0.39270
O932        O  0.36765470  0.81795382  0.61880307    -0.39210
O933        O  0.62305683  0.65958047  0.63739762    -0.39910
O934        O  0.59462884  0.67610290  0.67939803    -0.39980
C935        C  0.41975625  0.28221068  0.67339040    -0.12260
C936        C  0.45700345  0.29900183  0.69287500     0.04750
C937        C  0.49406665  0.26012558  0.70573337    -0.07550
C938        C  0.49934079  0.20773465  0.69520778    -0.08290
C939        C  0.46780283  0.19371987  0.67268185    -0.02840
C940        C  0.42628283  0.23083004  0.66213500     0.03970
N941        N  0.39413625  0.21954834  0.63832492     0.66480
H942        H  0.39166009  0.31214974  0.66336999     0.15380
H943        H  0.52862823  0.17800466  0.70437198     0.15090
N944        N  0.52946724  0.27515936  0.72771973     0.74180
O945        O  0.34369827  0.23300951  0.63779704    -0.39270
O946        O  0.41774462  0.20540770  0.61612459    -0.39210
O947        O  0.51610353  0.31460924  0.74271460    -0.39910
O948        O  0.57315818  0.24772831  0.73302635    -0.39980
C949        C  0.19365558  0.90577280  0.72103892    -0.12260
C950        C  0.15975334  0.95363519  0.72330071     0.04750
C951        C  0.18257278  0.00470241  0.71475319    -0.07550
C952        C  0.23683824  0.00749655  0.70525132    -0.08290
C953        C  0.27210199  0.96073376  0.70376800    -0.02840
C954        C  0.24888152  0.90848187  0.71057224     0.03970
N955        N  0.27972211  0.85820810  0.70698117     0.66480
H956        H  0.17694315  0.86596873  0.72720987     0.15380
H957        H  0.25152337  0.04827544  0.69930063     0.15090
N958        N  0.15301512  0.05559337  0.71771045     0.74180
O959        O  0.27538234  0.81851346  0.72488760    -0.39270
O960        O  0.30147198  0.84928030  0.68356698    -0.39210
O961        O  0.13182534  0.07979514  0.69644834    -0.39910
O962        O  0.16121730  0.08266179  0.73888782    -0.39980
C963        C  0.76381639  0.99182193  0.68227572    -0.12260
C964        C  0.77291712  0.98336634  0.71087571     0.04750
C965        C  0.72633609  0.97416802  0.72893351    -0.07550
C966        C  0.67243779  0.97489366  0.71748859    -0.08290
C967        C  0.66394809  0.98336498  0.68866349    -0.02840
C968        C  0.71086805  0.99109591  0.67118135     0.03970
N969        N  0.70546257  0.99862664  0.64167838     0.66480
H970        H  0.79841243  0.99983707  0.66824549     0.15380
H971        H  0.63708509  0.96702033  0.73097030     0.15090
N972        N  0.73257121  0.96344622  0.75858426     0.74180
O973        O  0.70825349  0.04652613  0.63029112    -0.39270
O974        O  0.71124232  0.95739755  0.62692362    -0.39210
O975        O  0.77829849  0.94773214  0.76859318    -0.39910
O976        O  0.69108591  0.96451226  0.77471319    -0.39980
C977        C  0.16827833  0.05993577  0.81695133    -0.12260
C978        C  0.12386051  0.02686413  0.82564470     0.04750
C979        C  0.10850494  0.02406926  0.85423194    -0.07550
C980        C  0.13446925  0.05766291  0.87254013    -0.08290
C981        C  0.17736659  0.09254928  0.86378300    -0.02840
C982        C  0.19585655  0.09198235  0.83569755     0.03970
N983        N  0.24067405  0.12494589  0.82545792     0.66480
H984        H  0.18067162  0.06206535  0.79516253     0.15380
H985        H  0.12158141  0.05536311  0.89427346     0.15090
N986        N  0.06585395  0.98887694  0.86519995     0.74180
O987        O  0.27566423  0.10528176  0.80877212    -0.39270
O988        O  0.24038374  0.17589673  0.82929046    -0.39210
O989        O  0.06960134  0.93764458  0.86218700    -0.39910
O990        O  0.03241497  0.00644834  0.88325234    -0.39980
C991        C  0.80878435  0.08744264  0.81141451    -0.12260
C992        C  0.86150897  0.06371331  0.80939975     0.04750
C993        C  0.89484180  0.05931985  0.83296899    -0.07550
C994        C  0.87709634  0.08199716  0.85764607    -0.08290
C995        C  0.82523878  0.10793314  0.85969895    -0.02840
C996        C  0.78939100  0.10801525  0.83658735     0.03970
N997        N  0.73366693  0.12841964  0.83807634     0.66480
H998        H  0.78254361  0.08978652  0.79334631     0.15380
H999        H  0.90453898  0.07972794  0.87524040     0.15090
N1000       N  0.94788194  0.03364899  0.83191453     0.74180
O1001       O  0.71580762  0.16169674  0.81905796    -0.39270
O1002       O  0.69949340  0.10257773  0.85355327    -0.39210
O1003       O  0.98921426  0.06270499  0.82621535    -0.39910
O1004       O  0.95429478  0.98466992  0.84164995    -0.39980
C1005       C  0.78870097  0.53134772  0.66012855    -0.12260
C1006       C  0.80683117  0.52967803  0.68768526     0.04750
C1007       C  0.76831393  0.53901669  0.70939443    -0.07550
C1008       C  0.71228182  0.54633686  0.70321399    -0.08290
C1009       C  0.69344246  0.54439814  0.67586927    -0.02840
C1010       C  0.73245353  0.53852246  0.65386642     0.03970
N1011       N  0.71522883  0.53469401  0.62550037     0.66480
H1012       H  0.81827817  0.52406976  0.64354020     0.15380
H1013       H  0.68258450  0.54899427  0.72019481     0.15090
N1014       N  0.78484799  0.53752431  0.73796359     0.74180
O1015       O  0.74440952  0.50840688  0.60848558    -0.39270
O1016       O  0.67297105  0.56083977  0.61672892    -0.39210
O1017       O  0.82371569  0.56693529  0.74499434    -0.39910
O1018       O  0.75580326  0.51342547  0.75669694    -0.39980
C1019       C  0.21661759  0.57854239  0.69136772    -0.12260
C1020       C  0.19182458  0.52890662  0.70068655     0.04750
C1021       C  0.22567866  0.48029123  0.70166391    -0.07550
C1022       C  0.28162538  0.48229606  0.69343657    -0.08290
C1023       C  0.30577155  0.53139906  0.68311911    -0.02840
C1024       C  0.27245379  0.58043719  0.68230963     0.03970
N1025       N  0.29469402  0.63263127  0.67277617     0.66480
H1026       H  0.19229522  0.61648887  0.69129561     0.15380
H1027       H  0.30555976  0.44406200  0.69346572     0.15090
N1028       N  0.20415276  0.42801605  0.71085167     0.74180
O1029       O  0.34426618  0.64314256  0.67716414    -0.39270
O1030       O  0.26362241  0.67036346  0.66228165    -0.39210
O1031       O  0.17453299  0.40289455  0.69461645    -0.39910
O1032       O  0.22488770  0.40176217  0.73166374    -0.39980
C1033       C  0.91117661  0.78280463  0.73465465    -0.12260
C1034       C  0.92610171  0.79641560  0.76139593     0.04750
C1035       C  0.94300439  0.75529810  0.78137869    -0.07550
C1036       C  0.95215493  0.70200680  0.77275788    -0.08290
C1037       C  0.94442861  0.68996244  0.74499170    -0.02840
C1038       C  0.92033029  0.72929255  0.72583317     0.03970
N1039       N  0.90826537  0.71725012  0.69740308     0.66480
H1040       H  0.89815550  0.81547060  0.71977171     0.15380
H1041       H  0.96837169  0.67025847  0.78732932     0.15090
N1042       N  0.95508000  0.76814835  0.80958329     0.74180
O1043       O  0.88982399  0.75481398  0.68063788    -0.39270
O1044       O  0.91331803  0.66899317  0.68905742    -0.39210
O1045       O  0.93391923  0.81047881  0.82001152    -0.39910
O1046       O  0.98372741  0.73518991  0.82490712    -0.39980
C1047       C  0.07992633  0.27266301  0.73742801    -0.12260
C1048       C  0.06986793  0.29646933  0.71072616     0.04750
C1049       C  0.06042782  0.26255166  0.68846681    -0.07550
C1050       C  0.04914434  0.20700547  0.69474194    -0.08290
C1051       C  0.04877738  0.18581832  0.72242234    -0.02840
C1052       C  0.06790438  0.21756122  0.74385673     0.03970
N1053       N  0.06786163  0.19723074  0.77256582     0.66480
H1054       H  0.08861251  0.29881351  0.75433687     0.15380
H1055       H  0.03643235  0.18121516  0.67841181     0.15090
N1056       N  0.05776847  0.28512779  0.66012379     0.74180
O1057       O  0.05357539  0.22867315  0.79163340    -0.39270
O1058       O  0.08795949  0.15013079  0.77924318    -0.39210
O1059       O  0.07864269  0.33114225  0.65343598    -0.39910
O1060       O  0.03918946  0.25710137  0.64115006    -0.39980
C1061       C  0.83289350  0.42483233  0.82662312    -0.12260
C1062       C  0.81918915  0.36897472  0.82810706     0.04750
C1063       C  0.83714304  0.33559211  0.80632798    -0.07550
C1064       C  0.86766303  0.35903327  0.78376577    -0.08290
C1065       C  0.88081099  0.41537227  0.78170481    -0.02840
C1066       C  0.86329299  0.44846231  0.80385102     0.03970
N1067       N  0.87732110  0.50535014  0.80429132     0.66480
H1068       H  0.82073963  0.45016733  0.84356858     0.15380
H1069       H  0.87998974  0.33266952  0.76717850     0.15090
N1070       N  0.82549832  0.27768710  0.80676161     0.74180
O1071       O  0.84155855  0.54050748  0.81154683    -0.39270
O1072       O  0.92719630  0.51836664  0.80341019    -0.39210
O1073       O  0.77894792  0.26057575  0.81462560    -0.39910
O1074       O  0.85942207  0.24431878  0.79617310    -0.39980
C1075       C  0.11346785  0.43966857  0.82833264    -0.12260
C1076       C  0.14351566  0.46235467  0.80568663     0.04750
C1077       C  0.20124442  0.45800169  0.80498510    -0.07550
C1078       C  0.22704578  0.42527631  0.82595633    -0.08290
C1079       C  0.19662967  0.39738098  0.84736579    -0.02840
C1080       C  0.13938465  0.40826151  0.84970900     0.03970
N1081       N  0.10653881  0.38691487  0.87272858     0.66480
H1082       H  0.06910950  0.44529982  0.82892888     0.15380
H1083       H  0.27133448  0.41980766  0.82492895     0.15090
N1084       N  0.23381104  0.48370892  0.78273768     0.74180
O1085       O  0.11906970  0.39736218  0.89725389    -0.39270
O1086       O  0.05863921  0.37088094  0.86834656    -0.39210
O1087       O  0.21733463  0.52774752  0.77006906    -0.39910
O1088       O  0.28173449  0.46552889  0.77750588    -0.39980
loop_ 
_geom_bond_atom_site_label_1 
_geom_bond_atom_site_label_2 
_geom_bond_distance 
_geom_bond_site_symmetry_2 
_ccdc_geom_bond_type 
O1           Ni7   1.912       .  S
O1           C22   1.271   1_655  A
O2          Ni25   1.868       .  S
O2           C11   1.261       .  A
O3           Ni7   1.918       .  S
O3          Ni25   1.904       .  S
O3          Ni19   1.952   1_655  S
O3           H26   0.966   1_655  S
C4           O21   1.280       .  A
C4           O13   1.278       .  A
C4         C1076   1.447       .  S
O5          Ni24   1.925       .  S
O5           C11   1.278   1_455  A
O6          Ni24   1.932       .  S
O6            C8   1.275       .  A
Ni7          O10   1.947       .  S
Ni7          O12   1.906       .  S
C8           O18   1.276       .  A
C8         C1020   1.518       .  S
O9          Ni25   1.908       .  S
O9           C15   1.260       .  A
O10          C15   1.269       .  A
C11        C1037   1.442       .  S
O12          C14   1.275       .  A
O13         Ni24   1.915       .  S
C14          O20   1.288       .  A
C14        C1065   1.509       .  S
C15        C1006   1.483       .  S
H16          O17   0.964   1_655  S
O17         Ni25   1.879   1_455  S
O17         Ni19   1.851       .  S
O17         Ni24   1.883       .  S
O18         Ni19   1.945       .  S
Ni19         O23   1.885       .  S
Ni19         O21   1.906       .  S
O20         Ni25   1.984       .  S
C22          O23   1.264       .  A
C22        C1048   1.459       .  S
O27         Ni33   1.911   1_655  S
O27          C48   1.279       .  A
O28         Ni51   1.869       .  S
O28          C37   1.257       .  A
O29         Ni33   1.880   1_655  S
O29         Ni51   1.850   1_665  S
O29         Ni45   1.909       .  S
O29          H52   0.962       .  S
C30          O47   1.278       .  A
C30          O39   1.272   1_565  A
C30         C964   1.503       .  S
O31         Ni50   1.927       .  S
O31          C37   1.273   1_655  A
O32         Ni50   1.898       .  S
O32          C34   1.271       .  A
Ni33         O36   1.926       .  S
Ni33         O38   1.935       .  S
C34          O44   1.280   1_545  A
C34         C992   1.464       .  S
O35         Ni51   1.939       .  S
O35          C41   1.282       .  A
O36          C41   1.278   1_565  A
C37        C1051   1.453       .  S
O38          C40   1.272       .  A
O39         Ni50   1.945       .  S
C40          O46   1.277       .  A
C40         C950   1.509       .  S
C41         C978   1.488       .  S
H42          O43   0.966       .  S
O43         Ni51   1.952   1_655  S
O43         Ni45   1.905   1_545  S
O43         Ni50   1.918       .  S
O44         Ni45   1.951       .  S
Ni45         O49   1.890       .  S
Ni45         O47   1.944       .  S
O46         Ni51   1.937   1_565  S
C48          O49   1.271       .  A
C48        C1034   1.443       .  S
O53         Ni59   1.894       .  S
O53          C74   1.266       .  A
O54         Ni77   1.904       .  S
O54          C63   1.273       .  A
O55         Ni59   1.916       .  S
O55         Ni77   1.914       .  S
O55         Ni71   1.935       .  S
O55          H78   0.966       .  S
C56          O73   1.278       .  A
C56          O65   1.276       .  A
C56         C908   1.443       .  S
O57         Ni76   1.894       .  S
O57          C63   1.272       .  A
O58         Ni76   1.917       .  S
O58          C60   1.270       .  A
Ni59         O62   1.903       .  S
Ni59         O64   1.911       .  S
C60          O70   1.284       .  A
C60        C1023   1.509       .  S
O61         Ni77   1.933       .  S
O61          C67   1.276       .  A
O62          C67   1.265       .  A
C63         C922   1.454       .  S
O64          C66   1.272       .  A
O65         Ni76   1.898       .  S
C66          O72   1.278       .  A
C66         C894   1.490       .  S
C67        C1009   1.477       .  S
H68          O69   0.964       .  S
O69         Ni77   1.903       .  S
O69         Ni71   1.866       .  S
O69         Ni76   1.873       .  S
O70         Ni71   1.959       .  S
Ni71         O75   1.891       .  S
Ni71         O73   1.918       .  S
O72         Ni77   1.957       .  S
C74          O75   1.264       .  A
C74         C936   1.456       .  S
O79         Ni85   1.884       .  S
O79         C100   1.254       .  A
O80        Ni103   1.907       .  S
O80          C89   1.276       .  A
O81         Ni85   1.885       .  S
O81        Ni103   1.897   1_545  S
O81         Ni97   1.942       .  S
O81         H104   0.966       .  S
C82          O99   1.282       .  A
C82          O91   1.285   1_545  A
C82         C880   1.467       .  S
O83        Ni102   1.891       .  S
O83          C89   1.270       .  A
O84        Ni102   1.904       .  S
O84          C86   1.266       .  A
Ni85         O88   1.896       .  S
Ni85         O90   1.904       .  S
C86          O96   1.287   1_565  A
C86         C967   1.508       .  S
O87        Ni103   1.982       .  S
O87          C93   1.294       .  A
O88          C93   1.277   1_545  A
C89         C925   1.461       .  S
O90          C92   1.265       .  A
O91        Ni102   1.921       .  S
C92          O98   1.268   1_545  A
C92         C866   1.490       .  S
C93         C953   1.517       .  S
H94          O95   0.965       .  S
O95        Ni103   1.933       .  S
O95         Ni97   1.853   1_565  S
O95        Ni102   1.846       .  S
O96         Ni97   1.978       .  S
Ni97        O101   1.909       .  S
Ni97         O99   1.922       .  S
O98        Ni103   1.936       .  S
C100        O101   1.267       .  A
C100        C939   1.460       .  S
O105       Ni111   1.918       .  S
O105        C126   1.275       .  A
O106       Ni129   1.892       .  S
O106        C115   1.264       .  A
O107       Ni111   1.884       .  S
O107       Ni129   1.863       .  S
O107       Ni123   1.912       .  S
O107        H130   0.966       .  S
C108        O125   1.274       .  A
C108        O117   1.266       .  A
C108        C824   1.501       .  S
O109       Ni128   1.898       .  S
O109        C115   1.268       .  A
O110       Ni128   1.905       .  S
O110        C112   1.276       .  A
Ni111       O114   1.930       .  S
Ni111       O116   1.920       .  S
C112        O122   1.274       .  A
C112        C883   1.477       .  S
O113       Ni129   1.943       .  S
O113        C119   1.285       .  A
O114        C119   1.281       .  A
C115        C855   1.465       .  S
O116        C118   1.271       .  A
O117       Ni128   1.929       .  S
C118        O124   1.276       .  A
C118        C813   1.503       .  S
C119        C897   1.497       .  S
H120        O121   0.966       .  S
O121       Ni129   1.968       .  S
O121       Ni123   1.909       .  S
O121       Ni128   1.917       .  S
O122       Ni123   1.938       .  S
Ni123       O127   1.876       .  S
Ni123       O125   1.945       .  S
O124       Ni129   1.941       .  S
C126        O127   1.263       .  A
C126        C838   1.439       .  S
O131       Ni137   1.931       .  S
O131        C152   1.277       .  A
O132       Ni155   1.879       .  S
O132        C141   1.266       .  A
O133       Ni137   1.909       .  S
O133       Ni155   1.900       .  S
O133       Ni149   1.937       .  S
O133        H156   0.966       .  S
C134        O151   1.282       .  A
C134        O143   1.277       .  A
C134        C911   1.458       .  S
O135       Ni154   1.908       .  S
O135        C141   1.276       .  A
O136       Ni154   1.929       .  S
O136        C138   1.271       .  A
Ni137       O140   1.940       .  S
Ni137       O142   1.922       .  S
C138        O148   1.275       .  A
C138        C782   1.503       .  S
O139       Ni155   1.917       .  S
O139        C145   1.270       .  A
O140        C145   1.274       .  A
C141        C841   1.435       .  S
O142        C144   1.278       .  A
O143       Ni154   1.898       .  S
C144        O150   1.278       .  A
C144        C869   1.490       .  S
C145        C799   1.484       .  S
H146        O147   0.964       .  S
O147       Ni155   1.888       .  S
O147       Ni149   1.852       .  S
O147       Ni154   1.873       .  S
O148       Ni149   1.941       .  S
Ni149       O153   1.874       .  S
Ni149       O151   1.922       .  S
O150       Ni155   1.949       .  S
C152        O153   1.261       .  A
C152        C852   1.458       .  S
O157       Ni163   1.906       .  S
O157        C178   1.270       .  A
O158       Ni181   1.894       .  S
O158        C167   1.267       .  A
O159       Ni163   1.913       .  S
O159       Ni181   1.919       .  S
O159       Ni175   1.942       .  S
O159        H182   0.966       .  S
C160        O177   1.280       .  A
C160        O169   1.278       .  A
C160        C729   1.459       .  S
O161       Ni180   1.910       .  S
O161        C167   1.273       .  A
O162       Ni180   1.915       .  S
O162        C164   1.269       .  A
Ni163       O166   1.918       .  S
Ni163       O168   1.911       .  S
C164        O174   1.279       .  A
C164        C785   1.506       .  S
O165       Ni181   1.923       .  S
O165        C171   1.271       .  A
O166        C171   1.269       .  A
C167        C754   1.452       .  S
O168        C170   1.272       .  A
O169       Ni180   1.907       .  S
C170        O176   1.276       .  A
C170        C743   1.479       .  S
C171        C796   1.481       .  S
H172        O173   0.966       .  S
O173       Ni181   1.897       .  S
O173       Ni175   1.864       .  S
O173       Ni180   1.873       .  S
O174       Ni175   1.952       .  S
Ni175       O179   1.900       .  S
Ni175       O177   1.920       .  S
O176       Ni181   1.948       .  S
C178        O179   1.266       .  A
C178        C768   1.462       .  S
O183       Ni189   1.916       .  S
O183        C204   1.278       .  A
O184       Ni207   1.879       .  S
O184        C193   1.261       .  A
O185       Ni189   1.882       .  S
O185       Ni207   1.858       .  S
O185       Ni201   1.902       .  S
O185        H208   0.965       .  S
C186        O203   1.275       .  A
C186        O195   1.274       .  A
C186        C827   1.497       .  S
O187       Ni206   1.929       .  S
O187        C193   1.275       .  A
O188       Ni206   1.914       .  S
O188        C190   1.275       .  A
Ni189       O192   1.916       .  S
Ni189       O194   1.927       .  S
C190        O200   1.280       .  A
C190        C712   1.485       .  S
O191       Ni207   1.936       .  S
O191        C197   1.282       .  A
O192        C197   1.279       .  A
C193        C771   1.464       .  S
O194        C196   1.271       .  A
O195       Ni206   1.942       .  S
C196        O202   1.275       .  A
C196        C810   1.502       .  S
C197        C698   1.467       .  S
H198        O199   0.966       .  S
O199       Ni207   1.948       .  S
O199       Ni201   1.909       .  S
O199       Ni206   1.910       .  S
O200       Ni201   1.945       .  S
Ni201       O205   1.888       .  S
Ni201       O203   1.935       .  S
O202       Ni207   1.935       .  S
C204        O205   1.269       .  A
C204        C757   1.450       .  S
O209       Ni215   1.934       .  S
O209        C230   1.282       .  A
O210       Ni233   1.879       .  S
O210        C219   1.258       .  A
O211       Ni215   1.882       .  S
O211       Ni233   1.861       .  S
O211       Ni227   1.910       .  S
O211        H234   0.965       .  S
C212        O229   1.279       .  A
C212        O221   1.271       .  A
C212        C659   1.509       .  S
O213       Ni232   1.916       .  S
O213        C219   1.271       .  A
O214       Ni232   1.913       .  S
O214        C216   1.275       .  A
Ni215       O218   1.935       .  S
Ni215       O220   1.936       .  S
C216        O226   1.268       .  A
C216        C995   1.480       .  S
O217       Ni233   1.944       .  S
O217        C223   1.283       .  A
O218        C223   1.282       .  A
C219        C684   1.447       .  S
O220        C222   1.273       .  A
O221       Ni232   1.933       .  S
C222        O228   1.277       .  A
C222        C642   1.509       .  S
C223       C1062   1.489       .  S
H224        O225   0.966       .  S
O225       Ni233   1.955       .  S
O225       Ni227   1.913       .  S
O225       Ni232   1.918       .  S
O226       Ni227   1.923       .  S
Ni227       O231   1.873       .  S
Ni227       O229   1.949       .  S
O228       Ni233   1.950       .  S
C230        O231   1.263       .  A
C230        C673   1.446       .  S
O235       Ni241   1.912       .  S
O235        C256   1.269       .  A
O236       Ni259   1.889       .  S
O236        C245   1.269       .  A
O237       Ni241   1.905       .  S
O237       Ni259   1.907       .  S
O237       Ni253   1.938       .  S
O237        H260   0.966       .  S
C238        O255   1.281       .  A
C238        O247   1.277       .  A
C238       C1079   1.476       .  S
O239       Ni258   1.896       .  S
O239        C245   1.274       .  A
O240       Ni258   1.926       .  S
O240        C242   1.270       .  A
Ni241       O244   1.925       .  S
Ni241       O246   1.902       .  S
C242        O252   1.278       .  A
C242        C617   1.508       .  S
O243       Ni259   1.923       .  S
O243        C249   1.274       .  A
O244        C249   1.272       .  A
C245        C670   1.446       .  S
O246        C248   1.271       .  A
O247       Ni258   1.892       .  S
C248        O254   1.279       .  A
C248        C981   1.492       .  S
C249        C631   1.482       .  S
H250        O251   0.964       .  S
O251       Ni259   1.901       .  S
O251       Ni253   1.860       .  S
O251       Ni258   1.874       .  S
O252       Ni253   1.941       .  S
Ni253       O257   1.885       .  S
Ni253       O255   1.938       .  S
O254       Ni259   1.958       .  S
C256        O257   1.261       .  A
C256        C687   1.447       .  S
O261       Ni267   1.924       .  S
O261        C282   1.272       .  A
O262       Ni285   1.875       .  S
O262        C271   1.263       .  A
O263       Ni267   1.917       .  S
O263       Ni285   1.912       .  S
O263       Ni279   1.936       .  S
O263        H286   0.966       .  S
C264        O281   1.280       .  A
C264        O273   1.278       .  A
C264        C572   1.457       .  S
O265       Ni284   1.922   1_556  S
O265        C271   1.278       .  A
O266       Ni284   1.930   1_556  S
O266        C268   1.271       .  A
Ni267       O270   1.937       .  S
Ni267       O272   1.914       .  S
C268        O278   1.274       .  A
C268        C614   1.501       .  S
O269       Ni285   1.909       .  S
O269        C275   1.267       .  A
O270        C275   1.273       .  A
C271        C586   1.441       .  S
O272        C274   1.273   1_556  A
O273       Ni284   1.912       .  S
C274        O280   1.277   1_554  A
C274        C558   1.479       .  S
C275        C628   1.484       .  S
H276        O277   0.966   1_554  S
O277       Ni285   1.883       .  S
O277       Ni279   1.854       .  S
O277       Ni284   1.878   1_556  S
O278       Ni279   1.940       .  S
Ni279       O283   1.870       .  S
Ni279       O281   1.915   1_556  S
O280       Ni285   1.949       .  S
C282        O283   1.257       .  A
C282        C603   1.453       .  S
O287       Ni293   1.909       .  S
O287        C308   1.278       .  A
O288       Ni311   1.880       .  S
O288        C297   1.261       .  A
O289       Ni293   1.871       .  S
O289       Ni311   1.851   1_554  S
O289       Ni305   1.903   1_554  S
O289        H312   0.963       .  S
C290        O307   1.277       .  A
C290        O299   1.273       .  A
C290        C656   1.514       .  S
O291       Ni310   1.918       .  S
O291        C297   1.272       .  A
O292       Ni310   1.906   1_554  S
O292        C294   1.273       .  A
Ni293       O296   1.908       .  S
Ni293       O298   1.928   1_554  S
C294        O304   1.278       .  A
C294        C533   1.475       .  S
O295       Ni311   1.944   1_554  S
O295        C301   1.285       .  A
O296        C301   1.280       .  A
C297        C600   1.450       .  S
O298        C300   1.271       .  A
O299       Ni310   1.937       .  S
C300        O306   1.281       .  A
C300        C645   1.517       .  S
C301        C547   1.487       .  S
H302        O303   0.966       .  S
O303       Ni311   1.957       .  S
O303       Ni305   1.913       .  S
O303       Ni310   1.917       .  S
O304       Ni305   1.951   1_554  S
Ni305       O309   1.885   1_556  S
Ni305       O307   1.948       .  S
O306       Ni311   1.957       .  S
C308        O309   1.269       .  A
C308        C589   1.440       .  S
O313       Ni319   1.921       .  S
O313        C334   1.273       .  A
O314       Ni337   1.891       .  S
O314        C323   1.267       .  A
O315       Ni319   1.915       .  S
O315       Ni337   1.914       .  S
O315       Ni331   1.948       .  S
O315        H338   0.966       .  S
C316        O333   1.282       .  A
C316        O325   1.278       .  A
C316        C726   1.474       .  S
O317       Ni336   1.905       .  S
O317        C323   1.274       .  A
O318       Ni336   1.916       .  S
O318        C320   1.268       .  A
Ni319       O322   1.944       .  S
Ni319       O324   1.903       .  S
C320        O330   1.278       .  A
C320        C488   1.501       .  S
O321       Ni337   1.923       .  S
O321        C327   1.270       .  A
O322        C327   1.272       .  A
C323        C502   1.445       .  S
O324        C326   1.273       .  A
O325       Ni336   1.900       .  S
C326        O332   1.279       .  A
C326        C701   1.495       .  S
C327        C477   1.490       .  S
H328        O329   0.965       .  S
O329       Ni337   1.894       .  S
O329       Ni331   1.857       .  S
O329       Ni336   1.873       .  S
O330       Ni331   1.945       .  S
Ni331       O335   1.884       .  S
Ni331       O333   1.926       .  S
O332       Ni337   1.957       .  S
C334        O335   1.263       .  A
C334        C516   1.461       .  S
O339       Ni345   1.923       .  S
O339        C360   1.278       .  A
O340       Ni363   1.889       .  S
O340        C349   1.264       .  A
O341       Ni345   1.884   1_565  S
O341       Ni363   1.865       .  S
O341       Ni357   1.908       .  S
O341        H364   0.965       .  S
C342        O359   1.274       .  A
C342        O351   1.270       .  A
C342        C460   1.505       .  S
O343       Ni362   1.913       .  S
O343        C349   1.271       .  A
O344       Ni362   1.913       .  S
O344        C346   1.274       .  A
Ni345       O348   1.917   1_545  S
Ni345       O350   1.927       .  S
C346        O356   1.277       .  A
C346        C715   1.474       .  S
O347       Ni363   1.943       .  S
O347        C353   1.285       .  A
O348        C353   1.280       .  A
C349        C519   1.457       .  S
O350        C352   1.272   1_545  A
O351       Ni362   1.939       .  S
C352        O358   1.280       .  A
C352        C449   1.513       .  S
C353        C740   1.493       .  S
H354        O355   0.966       .  S
O355       Ni363   1.965       .  S
O355       Ni357   1.914       .  S
O355       Ni362   1.928       .  S
O356       Ni357   1.943       .  S
Ni357       O361   1.879   1_565  S
Ni357       O359   1.941       .  S
O358       Ni363   1.958       .  S
C360        O361   1.264       .  A
C360        C505   1.446       .  S
O365       Ni371   1.923       .  S
O365        C386   1.272   1_655  A
O366       Ni389   1.895       .  S
O366        C375   1.268       .  A
O367       Ni371   1.918       .  S
O367       Ni389   1.919       .  S
O367       Ni383   1.948   1_655  S
O367        H390   0.966       .  S
C368        O385   1.282       .  A
C368        O377   1.277       .  A
C368        C575   1.460       .  S
O369       Ni388   1.902       .  S
O369        C375   1.274   1_455  A
O370       Ni388   1.921       .  S
O370        C372   1.269       .  A
Ni371       O374   1.938       .  S
Ni371       O376   1.910       .  S
C372        O382   1.277       .  A
C372        C491   1.503       .  S
O373       Ni389   1.925       .  S
O373        C379   1.273       .  A
O374        C379   1.271       .  A
C375        C421   1.456       .  S
O376        C378   1.272       .  A
O377       Ni388   1.903       .  S
C378        O384   1.276       .  A
C378        C544   1.471       .  S
C379        C474   1.488       .  S
H380        O381   0.966   1_655  S
O381       Ni389   1.900   1_455  S
O381       Ni383   1.858       .  S
O381       Ni388   1.876       .  S
O382       Ni383   1.946       .  S
Ni383       O387   1.885       .  S
Ni383       O385   1.924       .  S
O384       Ni389   1.944       .  S
C386        O387   1.262       .  A
C386        C435   1.464       .  S
O391       Ni397   1.906       .  S
O391        C412   1.276   1_455  A
O392       Ni415   1.895       .  S
O392        C401   1.266       .  A
O393       Ni397   1.874   1_565  S
O393       Ni415   1.861       .  S
O393       Ni409   1.911   1_455  S
O393        H416   0.965   1_455  S
C394        O411   1.276       .  A
C394        O403   1.268       .  A
C394        C463   1.505       .  S
O395       Ni414   1.910       .  S
O395        C401   1.270   1_655  A
O396       Ni414   1.906       .  S
O396        C398   1.275       .  A
Ni397       O400   1.911   1_545  S
Ni397       O402   1.921   1_545  S
C398        O408   1.279       .  A
C398        C530   1.481       .  S
O399       Ni415   1.951       .  S
O399        C405   1.288       .  A
O400        C405   1.280       .  A
C401        C432   1.462       .  S
O402        C404   1.269       .  A
O403       Ni414   1.936       .  S
C404        O410   1.281       .  A
C404        C446   1.514       .  S
C405        C561   1.492       .  S
H406        O407   0.966       .  S
O407       Ni415   1.969   1_655  S
O407       Ni409   1.918       .  S
O407       Ni414   1.922       .  S
O408       Ni409   1.950       .  S
Ni409       O413   1.898   1_565  S
Ni409       O411   1.948       .  S
O410       Ni415   1.965       .  S
C412        O413   1.269       .  A
C412        C418   1.462       .  S
C417        C418   1.400       .  A
C417        C422   1.390   1_655  A
C417        H424   1.084   1_655  S
C418        C419   1.412       .  A
C419        C420   1.401       .  A
C419        N426   1.437       .  S
C420        C421   1.401       .  A
C420        H425   1.084       .  S
C421        C422   1.409   1_655  A
C422        N423   1.440       .  S
N423        O427   1.263       .  A
N423        O428   1.263       .  A
N426        O429   1.263       .  A
N426        O430   1.262       .  A
C431        C432   1.404       .  A
C431        C436   1.400       .  A
C431        H438   1.084       .  S
C432        C433   1.414       .  A
C433        C434   1.398       .  A
C433        N440   1.439       .  S
C434        C435   1.402       .  A
C434        H439   1.085       .  S
C435        C436   1.410       .  A
C436        N437   1.442       .  S
N437        O441   1.263       .  A
N437        O442   1.263   1_455  A
N440        O443   1.263       .  A
N440        O444   1.262       .  A
C445        C446   1.404       .  A
C445        C450   1.419       .  A
C445        H452   1.084       .  S
C446        C447   1.426       .  A
C447        C448   1.417       .  A
C447        N454   1.435       .  S
C448        C449   1.403       .  A
C448        H453   1.084       .  S
C449        C450   1.427       .  A
C450        N451   1.437       .  S
N451        O455   1.261   1_565  A
N451        O456   1.263       .  A
N454        O457   1.262   1_565  A
N454        O458   1.262       .  A
C459        C460   1.410       .  A
C459        C464   1.423       .  A
C459        H466   1.083       .  S
C460        C461   1.417       .  A
C461        C462   1.417       .  A
C461        N468   1.442       .  S
C462        C463   1.409       .  A
C462        H467   1.084       .  S
C463        C464   1.420       .  A
C464        N465   1.442       .  S
N465        O469   1.263       .  A
N465        O470   1.262   1_565  A
N468        O471   1.263       .  A
N468        O472   1.263       .  A
C473        C474   1.400       .  A
C473        C478   1.409       .  A
C473        H480   1.084       .  S
C474        C475   1.420       .  A
C475        C476   1.412       .  A
C475        N482   1.436       .  S
C476        C477   1.401       .  A
C476        H481   1.084       .  S
C477        C478   1.417       .  A
C478        N479   1.434       .  S
N479        O483   1.261       .  A
N479        O484   1.263       .  A
N482        O485   1.261       .  A
N482        O486   1.263       .  A
C487        C488   1.400       .  A
C487        C492   1.411       .  A
C487        H494   1.084       .  S
C488        C489   1.424       .  A
C489        C490   1.413       .  A
C489        N496   1.433       .  S
C490        C491   1.403       .  A
C490        H495   1.084       .  S
C491        C492   1.424       .  A
C492        N493   1.432       .  S
N493        O497   1.263       .  A
N493        O498   1.262       .  A
N496        O499   1.262       .  A
N496        O500   1.262       .  A
C501        C502   1.399       .  A
C501        C506   1.399       .  A
C501        H508   1.084       .  S
C502        C503   1.407       .  A
C503        C504   1.394       .  A
C503        N510   1.442       .  S
C504        C505   1.397       .  A
C504        H509   1.084       .  S
C505        C506   1.413       .  A
C506        N507   1.443       .  S
N507        O511   1.263       .  A
N507        O512   1.262       .  A
N510        O513   1.263       .  A
N510        O514   1.262       .  A
C515        C516   1.402       .  A
C515        C520   1.399       .  A
C515        H522   1.084       .  S
C516        C517   1.408       .  A
C517        C518   1.400       .  A
C517        N524   1.442       .  S
C518        C519   1.403       .  A
C518        H523   1.084       .  S
C519        C520   1.415       .  A
C520        N521   1.446       .  S
N521        O525   1.263       .  A
N521        O526   1.262       .  A
N524        O527   1.263       .  A
N524        O528   1.263       .  A
C529        C530   1.406       .  A
C529        C534   1.402       .  A
C529        H536   1.084       .  S
C530        C531   1.414       .  A
C531        C532   1.402       .  A
C531        N538   1.432       .  S
C532        C533   1.403       .  A
C532        H537   1.084       .  S
C533        C534   1.410       .  A
C534        N535   1.432       .  S
N535        O539   1.262       .  A
N535        O540   1.262       .  A
N538        O541   1.262       .  A
N538        O542   1.262       .  A
C543        C544   1.404       .  A
C543        C548   1.410       .  A
C543        H550   1.084       .  S
C544        C545   1.409       .  A
C545        C546   1.396       .  A
C545        N552   1.437       .  S
C546        C547   1.408       .  A
C546        H551   1.084       .  S
C547        C548   1.419       .  A
C548        N549   1.440       .  S
N549        O553   1.263       .  A
N549        O554   1.262       .  A
N552        O555   1.262       .  A
N552        O556   1.263       .  A
C557        C558   1.406       .  A
C557        C562   1.416       .  A
C557        H564   1.083       .  S
C558        C559   1.410       .  A
C559        C560   1.398       .  A
C559        N566   1.439   1_554  S
C560        C561   1.409       .  A
C560        H565   1.084       .  S
C561        C562   1.422       .  A
C562        N563   1.445       .  S
N563        O567   1.263       .  A
N563        O568   1.262       .  A
N566        O569   1.261       .  A
N566        O570   1.263       .  A
C571        C572   1.402       .  A
C571        C576   1.397       .  A
C571        H578   1.085       .  S
C572        C573   1.412       .  A
C573        C574   1.397       .  A
C573        N580   1.440       .  S
C574        C575   1.401       .  A
C574        H579   1.082       .  S
C575        C576   1.412       .  A
C576        N577   1.442       .  S
N577        O581   1.262       .  A
N577        O582   1.263       .  A
N580        O583   1.261       .  A
N580        O584   1.263       .  A
C585        C586   1.399   1_554  A
C585        C590   1.398       .  A
C585        H592   1.084       .  S
C586        C587   1.405       .  A
C587        C588   1.390       .  A
C587        N594   1.443       .  S
C588        C589   1.399   1_556  A
C588        H593   1.085       .  S
C589        C590   1.413       .  A
C590        N591   1.445       .  S
N591        O595   1.263       .  A
N591        O596   1.262       .  A
N594        O597   1.263       .  A
N594        O598   1.263       .  A
C599        C600   1.402       .  A
C599        C604   1.399   1_655  A
C599        H606   1.084       .  S
C600        C601   1.417       .  A
C601        C602   1.395   1_655  A
C601        N608   1.448   1_556  S
C602        C603   1.398       .  A
C602        H607   1.085       .  S
C603        C604   1.406       .  A
C604        N605   1.442       .  S
N605        O609   1.263       .  A
N605        O610   1.263       .  A
N608        O611   1.259       .  A
N608        O612   1.263   1_655  A
C613        C614   1.405       .  A
C613        C618   1.419       .  A
C613        H620   1.083       .  S
C614        C615   1.419       .  A
C615        C616   1.407       .  A
C615        N622   1.433       .  S
C616        C617   1.405       .  A
C616        H621   1.084       .  S
C617        C618   1.425       .  A
C618        N619   1.437       .  S
N619        O623   1.263       .  A
N619        O624   1.263       .  A
N622        O625   1.260       .  A
N622        O626   1.262       .  A
C627        C628   1.410       .  A
C627        C632   1.417       .  A
C627        H634   1.083       .  S
C628        C629   1.411       .  A
C629        C630   1.402       .  A
C629        N636   1.442       .  S
C630        C631   1.405   1_565  A
C630        H635   1.083   1_565  S
C631        C632   1.415   1_545  A
C632        N633   1.443   1_565  S
N633        O637   1.263   1_546  A
N633        O638   1.262       .  A
N636        O639   1.263       .  A
N636        O640   1.263       .  A
C641        C642   1.402       .  A
C641        C646   1.417       .  A
C641        H648   1.084       .  S
C642        C643   1.425       .  A
C643        C644   1.418       .  A
C643        N650   1.437       .  S
C644        C645   1.405       .  A
C644        H649   1.083       .  S
C645        C646   1.428       .  A
C646        N647   1.435   1_556  S
N647        O651   1.263       .  A
N647        O652   1.262       .  A
N650        O653   1.261       .  A
N650        O654   1.263       .  A
C655        C656   1.408       .  A
C655        C660   1.410   1_565  A
C655        H662   1.084       .  S
C656        C657   1.424       .  A
C657        C658   1.429   1_565  A
C657        N664   1.440       .  S
C658        C659   1.413       .  A
C658        H663   1.083       .  S
C659        C660   1.417       .  A
C660        N661   1.442       .  S
N661        O665   1.263   1_556  A
N661        O666   1.263   1_556  A
N664        O667   1.262       .  A
N664        O668   1.263       .  A
C669        C670   1.402       .  A
C669        C674   1.389       .  A
C669        H676   1.085       .  S
C670        C671   1.412       .  A
C671        C672   1.400       .  A
C671        N678   1.443       .  S
C672        C673   1.402       .  A
C672        H677   1.084       .  S
C673        C674   1.404       .  A
C674        N675   1.442       .  S
N675        O679   1.263       .  A
N675        O680   1.263       .  A
N678        O681   1.262       .  A
N678        O682   1.263       .  A
C683        C684   1.392       .  A
C683        C688   1.387   1_655  A
C683        H690   1.085       .  S
C684        C685   1.411       .  A
C685        C686   1.406   1_655  A
C685        N692   1.443       .  S
C686        C687   1.400       .  A
C686        H691   1.083       .  S
C687        C688   1.416       .  A
C688        N689   1.447       .  S
N689        O693   1.263       .  A
N689        O694   1.261       .  A
N692        O695   1.263       .  A
N692        O696   1.263   1_556  A
C697        C698   1.400       .  A
C697        C702   1.407       .  A
C697        H704   1.084       .  S
C698        C699   1.413       .  A
C699        C700   1.400       .  A
C699        N706   1.444       .  S
C700        C701   1.409       .  A
C700        H705   1.083       .  S
C701        C702   1.422       .  A
C702        N703   1.437       .  S
N703        O707   1.263       .  A
N703        O708   1.262       .  A
N706        O709   1.261       .  A
N706        O710   1.263       .  A
C711        C712   1.406       .  A
C711        C716   1.404       .  A
C711        H718   1.083       .  S
C712        C713   1.417       .  A
C713        C714   1.405       .  A
C713        N720   1.438       .  S
C714        C715   1.402       .  A
C714        H719   1.084       .  S
C715        C716   1.413       .  A
C716        N717   1.440       .  S
N717        O721   1.263       .  A
N717        O722   1.262       .  A
N720        O723   1.263       .  A
N720        O724   1.263       .  A
C725        C726   1.407       .  A
C725        C730   1.393       .  A
C725        H732   1.084       .  S
C726        C727   1.416       .  A
C727        C728   1.400       .  A
C727        N734   1.440       .  S
C728        C729   1.402       .  A
C728        H733   1.084       .  S
C729        C730   1.408       .  A
C730        N731   1.437       .  S
N731        O735   1.262       .  A
N731        O736   1.261       .  A
N734        O737   1.263       .  A
N734        O738   1.263       .  A
C739        C740   1.408       .  A
C739        C744   1.400       .  A
C739        H746   1.083       .  S
C740        C741   1.422       .  A
C741        C742   1.415       .  A
C741        N748   1.443       .  S
C742        C743   1.404       .  A
C742        H747   1.083       .  S
C743        C744   1.409       .  A
C744        N745   1.440       .  S
N745        O749   1.263       .  A
N745        O750   1.262       .  A
N748        O751   1.263       .  A
N748        O752   1.262       .  A
C753        C754   1.397   1_655  A
C753        C758   1.391       .  A
C753        H760   1.084       .  S
C754        C755   1.414   1_455  A
C755        C756   1.401       .  A
C755        N762   1.440   1_655  S
C756        C757   1.398       .  A
C756        H761   1.084       .  S
C757        C758   1.412       .  A
C758        N759   1.444       .  S
N759        O763   1.263       .  A
N759        O764   1.262       .  A
N762        O765   1.263       .  A
N762        O766   1.263       .  A
C767        C768   1.404       .  A
C767        C772   1.398       .  A
C767        H774   1.084       .  S
C768        C769   1.412       .  A
C769        C770   1.398       .  A
C769        N776   1.435       .  S
C770        C771   1.402       .  A
C770        H775   1.085       .  S
C771        C772   1.409       .  A
C772        N773   1.442       .  S
N773        O777   1.263       .  A
N773        O778   1.263       .  A
N776        O779   1.262       .  A
N776        O780   1.262       .  A
C781        C782   1.413       .  A
C781        C786   1.416       .  A
C781        H788   1.084       .  S
C782        C783   1.415       .  A
C783        C784   1.413       .  A
C783        N790   1.437       .  S
C784        C785   1.413       .  A
C784        H789   1.084       .  S
C785        C786   1.416       .  A
C786        N787   1.439       .  S
N787        O791   1.263       .  A
N787        O792   1.262       .  A
N790        O793   1.263       .  A
N790        O794   1.262       .  A
C795        C796   1.407       .  A
C795        C800   1.416       .  A
C795        H802   1.084       .  S
C796        C797   1.413       .  A
C797        C798   1.404       .  A
C797        N804   1.443       .  S
C798        C799   1.404   1_565  A
C798        H803   1.084       .  S
C799        C800   1.418   1_545  A
C800        N801   1.442   1_565  S
N801        O805   1.263   1_545  A
N801        O806   1.261       .  A
N804        O807   1.263       .  A
N804        O808   1.263       .  A
C809        C810   1.405       .  A
C809        C814   1.405       .  A
C809        H816   1.084       .  S
C810        C811   1.422       .  A
C811        C812   1.419       .  A
C811        N818   1.439       .  S
C812        C813   1.409       .  A
C812        H817   1.083       .  S
C813        C814   1.416       .  A
C814        N815   1.431       .  S
N815        O819   1.262       .  A
N815        O820   1.262       .  A
N818        O821   1.263       .  A
N818        O822   1.263       .  A
C823        C824   1.407   1_565  A
C823        C828   1.409       .  A
C823        H830   1.082       .  S
C824        C825   1.421   1_545  A
C825        C826   1.424       .  A
C825        N832   1.442   1_565  S
C826        C827   1.410       .  A
C826        H831   1.083       .  S
C827        C828   1.413       .  A
C828        N829   1.441       .  S
N829        O833   1.263       .  A
N829        O834   1.263       .  A
N832        O835   1.262       .  A
N832        O836   1.263       .  A
C837        C838   1.395       .  A
C837        C842   1.392   1_655  A
C837        H844   1.085       .  S
C838        C839   1.413       .  A
C839        C840   1.395       .  A
C839        N846   1.447       .  S
C840        C841   1.395   1_655  A
C840        H845   1.084   1_655  S
C841        C842   1.413       .  A
C842        N843   1.447       .  S
N843        O847   1.263       .  A
N843        O848   1.262       .  A
N846        O849   1.261       .  A
N846        O850   1.263       .  A
C851        C852   1.400       .  A
C851        C856   1.394       .  A
C851        H858   1.084       .  S
C852        C853   1.408       .  A
C853        C854   1.396       .  A
C853        N860   1.441       .  S
C854        C855   1.405       .  A
C854        H859   1.084       .  S
C855        C856   1.412       .  A
C856        N857   1.432       .  S
N857        O861   1.262       .  A
N857        O862   1.263       .  A
N860        O863   1.263       .  A
N860        O864   1.262       .  A
C865        C866   1.405       .  A
C865        C870   1.400       .  A
C865        H872   1.084       .  S
C866        C867   1.419       .  A
C867        C868   1.410       .  A
C867        N874   1.435   1_545  S
C868        C869   1.406       .  A
C868        H873   1.084       .  S
C869        C870   1.414       .  A
C870        N871   1.430       .  S
N871        O875   1.262       .  A
N871        O876   1.262       .  A
N874        O877   1.262       .  A
N874        O878   1.262   1_565  A
C879        C880   1.398       .  A
C879        C884   1.398       .  A
C879        H886   1.081   1_545  S
C880        C881   1.413       .  A
C881        C882   1.396       .  A
C881        N888   1.435       .  S
C882        C883   1.403       .  A
C882        H887   1.084       .  S
C883        C884   1.420       .  A
C884        N885   1.435       .  S
N885        O889   1.262   1_545  A
N885        O890   1.261       .  A
N888        O891   1.261       .  A
N888        O892   1.263       .  A
C893        C894   1.402       .  A
C893        C898   1.405       .  A
C893        H900   1.084       .  S
C894        C895   1.415       .  A
C895        C896   1.412       .  A
C895        N902   1.433       .  S
C896        C897   1.408       .  A
C896        H901   1.082       .  S
C897        C898   1.420       .  A
C898        N899   1.437       .  S
N899        O903   1.263       .  A
N899        O904   1.263       .  A
N902        O905   1.262       .  A
N902        O906   1.262       .  A
C907        C908   1.398       .  A
C907        C912   1.392       .  A
C907        H914   1.085       .  S
C908        C909   1.413       .  A
C909        C910   1.397       .  A
C909        N916   1.447       .  S
C910        C911   1.403       .  A
C910        H915   1.084       .  S
C911        C912   1.412       .  A
C912        N913   1.440       .  S
N913        O917   1.263       .  A
N913        O918   1.263       .  A
N916        O919   1.261       .  A
N916        O920   1.263       .  A
C921        C922   1.403       .  A
C921        C926   1.394       .  A
C921        H928   1.085       .  S
C922        C923   1.404       .  A
C923        C924   1.390       .  A
C923        N930   1.433       .  S
C924        C925   1.405       .  A
C924        H929   1.084       .  S
C925        C926   1.411       .  A
C926        N927   1.434       .  S
N927        O931   1.262       .  A
N927        O932   1.262       .  A
N930        O933   1.262       .  A
N930        O934   1.263       .  A
C935        C936   1.397       .  A
C935        C940   1.391       .  A
C935        H942   1.085       .  S
C936        C937   1.414       .  A
C937        C938   1.397       .  A
C937        N944   1.442       .  S
C938        C939   1.399       .  A
C938        H943   1.084       .  S
C939        C940   1.419       .  A
C940        N941   1.439       .  S
N941        O945   1.263       .  A
N941        O946   1.263       .  A
N944        O947   1.263       .  A
N944        O948   1.263       .  A
C949        C950   1.417       .  A
C949        C954   1.429       .  A
C949        H956   1.083       .  S
C950        C951   1.410   1_565  A
C951        C952   1.392       .  A
C951        N958   1.428       .  S
C952        C953   1.411   1_545  A
C952        H957   1.084       .  S
C953        C954   1.422       .  A
C954        N955   1.435       .  S
N955        O959   1.262       .  A
N955        O960   1.262       .  A
N958        O961   1.262       .  A
N958        O962   1.262       .  A
C963        C964   1.399       .  A
C963        C968   1.403       .  A
C963        H970   1.084       .  S
C964        C965   1.430       .  A
C965        C966   1.430       .  A
C965        N972   1.444       .  S
C966        C967   1.407       .  A
C966        H971   1.083       .  S
C967        C968   1.416       .  A
C968        N969   1.427       .  S
N969        O973   1.262   1_565  A
N969        O974   1.262       .  A
N972        O975   1.262       .  A
N972        O976   1.263       .  A
C977        C978   1.407       .  A
C977        C982   1.410       .  A
C977        H984   1.083       .  S
C978        C979   1.416       .  A
C979        C980   1.400       .  A
C979        N986   1.436   1_545  S
C980        C981   1.406       .  A
C980        H985   1.084       .  S
C981        C982   1.416       .  A
C982        N983   1.434       .  S
N983        O987   1.263       .  A
N983        O988   1.261       .  A
N986        O989   1.262       .  A
N986        O990   1.263   1_565  A
C991        C992   1.398       .  A
C991        C996   1.403       .  A
C991        H998   1.084       .  S
C992        C993   1.402       .  A
C993        C994   1.392       .  A
C993       N1000   1.421       .  S
C994        C995   1.401       .  A
C994        H999   1.084       .  S
C995        C996   1.423       .  A
C996        N997   1.434       .  S
N997       O1001   1.262       .  A
N997       O1002   1.262       .  A
N1000      O1003   1.261       .  A
N1000      O1004   1.262   1_545  A
C1005      C1006   1.400       .  A
C1005      C1010   1.411       .  A
C1005      H1012   1.083       .  S
C1006      C1007   1.414       .  A
C1007      C1008   1.405       .  A
C1007      N1014   1.435       .  S
C1008      C1009   1.402       .  A
C1008      H1013   1.084       .  S
C1009      C1010   1.419       .  A
C1010      N1011   1.441       .  S
N1011      O1015   1.263       .  A
N1011      O1016   1.262       .  A
N1014      O1017   1.261       .  A
N1014      O1018   1.263       .  A
C1019      C1020   1.410       .  A
C1019      C1024   1.421       .  A
C1019      H1026   1.083       .  S
C1020      C1021   1.422       .  A
C1021      C1022   1.413       .  A
C1021      N1028   1.431       .  S
C1022      C1023   1.405       .  A
C1022      H1027   1.084       .  S
C1023      C1024   1.424       .  A
C1024      N1025   1.440       .  S
N1025      O1029   1.263       .  A
N1025      O1030   1.263       .  A
N1028      O1031   1.262       .  A
N1028      O1032   1.262       .  A
C1033      C1034   1.399       .  A
C1033      C1038   1.401       .  A
C1033      H1040   1.084       .  S
C1034      C1035   1.406       .  A
C1035      C1036   1.392       .  A
C1035      N1042   1.443       .  S
C1036      C1037   1.398       .  A
C1036      H1041   1.085       .  S
C1037      C1038   1.414       .  A
C1038      N1039   1.448       .  S
N1039      O1043   1.263       .  A
N1039      O1044   1.262       .  A
N1042      O1045   1.263       .  A
N1042      O1046   1.263       .  A
C1047      C1048   1.401       .  A
C1047      C1052   1.395       .  A
C1047      H1054   1.085       .  S
C1048      C1049   1.410       .  A
C1049      C1050   1.400       .  A
C1049      N1056   1.442       .  S
C1050      C1051   1.400       .  A
C1050      H1055   1.084       .  S
C1051      C1052   1.411       .  A
C1052      N1053   1.439       .  S
N1053      O1057   1.263       .  A
N1053      O1058   1.261       .  A
N1056      O1059   1.263       .  A
N1056      O1060   1.263       .  A
C1061      C1062   1.403       .  A
C1061      C1066   1.414       .  A
C1061      H1068   1.080       .  S
C1062      C1063   1.415       .  A
C1063      C1064   1.406       .  A
C1063      N1070   1.441       .  S
C1064      C1065   1.411       .  A
C1064      H1069   1.083       .  S
C1065      C1066   1.421       .  A
C1066      N1067   1.433       .  S
N1067      O1071   1.262       .  A
N1067      O1072   1.261       .  A
N1070      O1073   1.261       .  A
N1070      O1074   1.263       .  A
C1075      C1076   1.397       .  A
C1075      C1080   1.395       .  A
C1075      H1082   1.085       .  S
C1076      C1077   1.406       .  A
C1077      C1078   1.397       .  A
C1077      N1084   1.444       .  S
C1078      C1079   1.410       .  A
C1078      H1083   1.083       .  S
C1079      C1080   1.415       .  A
C1080      N1081   1.435       .  S
N1081      O1085   1.262       .  A
N1081      O1086   1.263       .  A
N1084      O1087   1.262       .  A
N1084      O1088   1.263       .  A
