geometry optimzed in LAMMPS
_audit_creation_date              2020-11-30 
_audit_creation_method            'lammps2cif' 
_symmetry_space_group_name_H-M    'P1' 
_symmetry_Int_Tables_number       1 
_symmetry_cell_setting            triclinic 
loop_ 
_symmetry_equiv_pos_as_xyz 
  x,y,z 
_cell_length_a                    27.230910221009406 
_cell_length_b                    26.500760057381967 
_cell_length_c                    46.12329915189998 
_cell_angle_alpha                 89.39436794191413 
_cell_angle_beta                  89.8712070038585 
_cell_angle_gamma                 90.89586538199333 
loop_ 
_atom_site_label 
_atom_site_type_symbol 
_atom_site_fract_x 
_atom_site_fract_y 
_atom_site_fract_z 
_atom_site_charge 
O1          O  0.09252626  0.30761845  0.41252174    -0.81720
O2          O  0.31792528  0.38709088  0.41034092    -0.66410
O3          O  0.17747372  0.36436040  0.40552474    -1.13010
C4          C  0.22645001  0.31089420  0.31417400     1.05170
O5          O  0.30487909  0.43719320  0.37309782    -0.79620
O6          O  0.21994353  0.43676908  0.34864082    -0.67200
Ni7        Ni  0.14711381  0.32607372  0.43654358     1.34870
C8          C  0.18158848  0.42344182  0.33598023     0.83910
O9          O  0.24457797  0.39877271  0.44859298    -0.80150
O10         O  0.19543767  0.33904603  0.46625317    -0.90430
C11         C  0.33360969  0.42046503  0.39226992     0.83480
O12         O  0.18250934  0.26959688  0.42401407    -0.68630
O13         O  0.24806636  0.35422127  0.31398626    -0.87920
C14         C  0.22864498  0.26513615  0.42142268     0.84310
C15         C  0.22719163  0.37377714  0.46984035     1.05880
H16         H  0.27241521  0.32028603  0.37163203     0.37680
O17         O  0.25144668  0.34936440  0.37221971    -1.10580
O18         O  0.16112617  0.38191616  0.34359117    -0.67230
Ni19       Ni  0.18508838  0.32788957  0.36929682     1.26350
O20         O  0.25779574  0.30386067  0.42256007    -0.67460
O21         O  0.20065940  0.29314829  0.33517345    -0.79750
C22         C  0.08628385  0.29520266  0.38623563     0.83690
O23         O  0.11927976  0.30132663  0.36701820    -0.66930
Ni24       Ni  0.27541896  0.39567995  0.34450711     1.27450
Ni25       Ni  0.24776477  0.37417459  0.40996887     1.26060
H26         H  0.16136666  0.39620041  0.40246131     0.38240
O27         O  0.19057030  0.02318632  0.17339876    -0.81720
O28         O  0.37155434  0.16027362  0.17585969    -0.66410
O29         O  0.24057171  0.11152564  0.17072238    -1.13010
C30         C  0.25882039  0.09246987  0.07288719     1.05170
O31         O  0.38939866  0.17231290  0.12897366    -0.79620
O32         O  0.29438295  0.19712011  0.12191161    -0.67200
Ni33       Ni  0.20827923  0.07481985  0.20002269     1.34870
C34         C  0.24773939  0.19570386  0.12327697     0.83910
O35         O  0.29141432  0.16777869  0.20899569    -0.80150
O36         O  0.22426014  0.12694854  0.22687568    -0.90430
C37         C  0.39936506  0.17708606  0.15570628     0.83480
O38         O  0.26180947  0.03707985  0.21382453    -0.68630
O39         O  0.28681963  0.13050111  0.07684851    -0.87920
C40         C  0.30801641  0.04260460  0.21226498     0.84310
C41         C  0.25590358  0.16309073  0.22704990     1.05880
H42         H  0.33216463  0.07239612  0.13696459     0.37680
O43         O  0.31265903  0.10250157  0.13587780    -1.10580
O44         O  0.22344091  0.15415538  0.12041080    -0.67230
Ni45       Ni  0.24340108  0.08601552  0.13279015     1.26350
O46         O  0.32896596  0.07528018  0.19547614    -0.67460
O47         O  0.24683058  0.06313360  0.09370448    -0.79750
C48         C  0.16115251  0.03396685  0.15301572     0.83690
O49         O  0.17541277  0.06545923  0.13359700    -0.66930
Ni50       Ni  0.33563630  0.14786639  0.10583954     1.27450
Ni51       Ni  0.30555777  0.13397208  0.17369878     1.26060
H52         H  0.22216081  0.14210163  0.17042358     0.38240
O53         O  0.28187830  0.03492467  0.41176376    -0.81720
O54         O  0.42463471  0.85645580  0.42916601    -0.66410
O55         O  0.36809753  0.98664563  0.41943640    -1.13010
C56         C  0.36152052  0.95747187  0.32100543     1.05170
O57         O  0.42373333  0.82607643  0.38420941    -0.79620
O58         O  0.45767608  0.92170976  0.37368576    -0.67200
Ni59       Ni  0.31829129  0.00948395  0.44382176     1.34870
C60         C  0.45970059  0.96975944  0.37326793     0.83910
O61         O  0.41917910  0.94065436  0.46084419    -0.80150
O62         O  0.35552687  0.98718702  0.47723926    -0.90430
C63         C  0.43561795  0.82302508  0.41071304     0.83480
O64         O  0.28323028  0.94803232  0.43951619    -0.68630
O65         O  0.39596801  0.92771909  0.32714218    -0.87920
C66         C  0.29725290  0.91121949  0.45426556     0.84310
C67         C  0.39739895  0.96622238  0.48029755     1.05880
H68         H  0.33316879  0.89030603  0.38826911     0.37680
O69         O  0.36364981  0.90929256  0.38666635    -1.10580
O70         O  0.42094033  0.99691868  0.37128631    -0.67230
Ni71       Ni  0.35134423  0.98066318  0.38028060     1.26350
O72         O  0.33821326  0.89171996  0.44769342    -0.67460
O73         O  0.33368309  0.97470470  0.34036091    -0.79750
C74         C  0.30168866  0.06635652  0.39427597     0.83690
O75         O  0.33650378  0.05175985  0.37800884    -0.66930
Ni76       Ni  0.40661804  0.88025905  0.35858201     1.27450
Ni77       Ni  0.39286027  0.92096190  0.42473928     1.26060
H78         H  0.39472998  0.01060778  0.42140867     0.38240
O79         O  0.56317769  0.14449117  0.65977990    -0.81720
O80         O  0.64535993  0.91719602  0.66092421    -0.66410
O81         O  0.61995694  0.05943218  0.65294861    -1.13010
C82         C  0.53188303  0.99035874  0.57272718     1.05170
O83         O  0.67710541  0.92723725  0.61742723    -0.79620
O84         O  0.65436681  0.98942603  0.57296542    -0.67200
Ni85       Ni  0.58655723  0.09104467  0.68454054     1.34870
C86         C  0.65364229  0.03706711  0.57117352     0.83910
O87         O  0.66139704  0.99519805  0.69626713    -0.80150
O88         O  0.60505537  0.04382671  0.71520417    -0.90430
C89         C  0.67241993  0.90097191  0.64042314     0.83480
O90         O  0.53064230  0.05108145  0.67514188    -0.68630
O91         O  0.56198494  0.95375207  0.57368602    -0.87920
C92         C  0.52661760  0.00322790  0.67609201     0.84310
C93         C  0.63882217  0.01161649  0.71822662     1.05880
H94         H  0.56508778  0.96514635  0.62828779     0.37680
O95         O  0.59608386  0.98153045  0.62434531    -1.10580
O96         O  0.63143686  0.06451516  0.58982242    -0.67230
Ni97       Ni  0.57929587  0.04841847  0.61857252     1.26350
O98         O  0.56490289  0.97530964  0.67777481    -0.67460
O99         O  0.53616747  0.03047263  0.58772030    -0.79750
C100        C  0.55086020  0.14980258  0.63333597     0.83690
O101        O  0.55847726  0.11671306  0.61419365    -0.66930
Ni102      Ni  0.61987495  0.94059145  0.59546694     1.27450
Ni103      Ni  0.63003073  0.98812124  0.65948593     1.26060
H104        H  0.65042915  0.07676282  0.64814305     0.38240
O105        O  0.92200974  0.81876315  0.15916578    -0.81720
O106        O  0.84694292  0.04837333  0.15975190    -0.66410
O107        O  0.86216568  0.90400137  0.15381720    -1.13010
C108        C  0.91581683  0.95574291  0.06170666     1.05170
O109        O  0.80104150  0.04581112  0.12034112    -0.79620
O110        O  0.79193744  0.95552573  0.09715828    -0.67200
Ni111      Ni  0.90200183  0.87303057  0.18349248     1.34870
C112        C  0.80126514  0.91537606  0.08439512     0.83910
O113        O  0.83222696  0.97283234  0.19803496    -0.80150
O114        O  0.88896158  0.92058633  0.21395224    -0.90430
C115        C  0.82018873  0.07025407  0.14102729     0.83480
O116        O  0.95662028  0.91246586  0.17020519    -0.68630
O117        O  0.87404139  0.97714682  0.06140313    -0.87920
C118        C  0.96052572  0.96035496  0.16970052     0.84310
C119        C  0.85745799  0.95429041  0.21846472     1.05880
H120        H  0.90873439  0.00036301  0.11959760     0.37680
O121        O  0.87871395  0.98086551  0.12042758    -1.10580
O122        O  0.83993666  0.89157084  0.09166448    -0.67230
Ni123      Ni  0.89569688  0.91251695  0.11669262     1.26350
O124        O  0.92285921  0.98848765  0.17100932    -0.67460
O125        O  0.93072346  0.92898357  0.08281754    -0.79750
C126        C  0.93111017  0.81318755  0.13243322     0.83690
O127        O  0.91851549  0.84476765  0.11313022    -0.66930
Ni128      Ni  0.83748272  0.00946297  0.09221030     1.27450
Ni129      Ni  0.85495900  0.97656945  0.15870337     1.26060
H130        H  0.83068686  0.88709649  0.15177986     0.38240
O131        O  0.19223323  0.93001847  0.91968907    -0.81720
O132        O  0.05328118  0.11049242  0.92804048    -0.66410
O133        O  0.10583431  0.97874918  0.92151020    -1.13010
C134        C  0.12657385  0.00807718  0.82337723     1.05170
O135        O  0.05910776  0.14172129  0.88314734    -0.79620
O136        O  0.02570247  0.04614336  0.87180968    -0.67200
Ni137      Ni  0.15131775  0.95637876  0.94898913     1.34870
C138        C  0.02243895  0.99823249  0.87334078     0.83910
O139        O  0.04908921  0.02502805  0.95858183    -0.80150
O140        O  0.10961872  0.98078415  0.98004364    -0.90430
C141        C  0.04556403  0.14504583  0.90945079     0.83480
O142        O  0.18882939  0.01628429  0.94447818    -0.68630
O143        O  0.09313759  0.03984854  0.82791365    -0.87920
C144        C  0.17473206  0.05331131  0.95838255     0.84310
C145        C  0.06642288  0.99951366  0.97967948     1.05880
H146        H  0.14842337  0.07501211  0.89137432     0.37680
O147        O  0.11790649  0.05670209  0.88844614    -1.10580
O148        O  0.06081559  0.97060458  0.87158236    -0.67230
Ni149      Ni  0.12917078  0.98464975  0.88337095     1.26350
O150        O  0.13395577  0.07252396  0.95108381    -0.67460
O151        O  0.15168086  0.98983028  0.84397364    -0.79750
C152        C  0.17556027  0.89849718  0.90174320     0.83690
O153        O  0.14348804  0.91280267  0.88326559    -0.66930
Ni154      Ni  0.07897434  0.08719724  0.85846887     1.27450
Ni155      Ni  0.08267500  0.04521019  0.92492627     1.26060
H156        H  0.07823694  0.95537314  0.92230695     0.38240
O157        O  0.89255792  0.17330030  0.41204084    -0.81720
O158        O  0.67910567  0.07225057  0.39843371    -0.66410
O159        O  0.81730866  0.10404244  0.40120846    -1.13010
C160        C  0.77822818  0.15819847  0.30686101     1.05170
O161        O  0.69098099  0.02909577  0.35899352    -0.79620
O162        O  0.77846953  0.02794292  0.33556482    -0.67200
Ni163      Ni  0.83554248  0.14863807  0.43257249     1.34870
C164        C  0.82237961  0.03993211  0.33003197     0.83910
O165        O  0.74766814  0.06355651  0.44033137    -0.80150
O166        O  0.78207285  0.13055909  0.45931513    -0.90430
C167        C  0.66253796  0.04317910  0.37888551     0.83480
O168        O  0.79794034  0.20110111  0.41549927    -0.68630
O169        O  0.75828661  0.11466333  0.30421126    -0.87920
C170        C  0.75197644  0.19855716  0.41106814     0.84310
C171        C  0.75470490  0.09151885  0.46205338     1.05880
H172        H  0.72936677  0.14427586  0.36184558     0.37680
O173        O  0.74928732  0.11450315  0.36302011    -1.10580
O174        O  0.84222451  0.07920492  0.34129275    -0.67230
Ni175      Ni  0.81588542  0.13624985  0.36316983     1.26350
O176        O  0.72802973  0.15655461  0.41260442    -0.67460
O177        O  0.80700555  0.17019281  0.32739320    -0.79750
C178        C  0.90634015  0.17943497  0.38587335     0.83690
O179        O  0.88206240  0.16264808  0.36438485    -0.66930
Ni180      Ni  0.72586310  0.07275179  0.33293260     1.27450
Ni181      Ni  0.74788081  0.08868194  0.40124218     1.26060
H182        H  0.83653733  0.07370581  0.40121175     0.38240
O183        O  0.79610427  0.44356359  0.17763335    -0.81720
O184        O  0.60766957  0.30518640  0.18051417    -0.66410
O185        O  0.74011185  0.35549627  0.17850666    -1.13010
C186        C  0.72932662  0.36889513  0.07914795     1.05170
O187        O  0.59511824  0.28970774  0.13351845    -0.79620
O188        O  0.69090361  0.26235468  0.12932113    -0.67200
Ni189      Ni  0.76220779  0.40338187  0.20602282     1.34870
C190        C  0.73719520  0.26629924  0.13231797     0.83910
O191        O  0.68384181  0.30454105  0.21706285    -0.80150
O192        O  0.73094516  0.36540094  0.23699656    -0.90430
C193        C  0.58172735  0.28763887  0.15993392     0.83480
O194        O  0.70805290  0.44548798  0.20021575    -0.68630
O195        O  0.70297300  0.32939048  0.08307383    -0.87920
C196        C  0.66537962  0.43264066  0.20792445     0.84310
C197        C  0.71205553  0.32105257  0.23687029     1.05880
H198        H  0.65074608  0.39027691  0.14004377     0.37680
O199        O  0.67037840  0.36023715  0.14085958    -1.10580
O200        O  0.76007713  0.30866379  0.12979844    -0.67230
Ni201      Ni  0.73948501  0.37678067  0.13949113     1.26350
O202        O  0.64642111  0.39130862  0.19906969    -0.67460
O203        O  0.73711276  0.39795187  0.10017082    -0.79750
C204        C  0.82450400  0.42619839  0.15856862     0.83690
O205        O  0.80838920  0.39414047  0.14049531    -0.66930
Ni206      Ni  0.65128776  0.31246474  0.11133482     1.27450
Ni207      Ni  0.67363145  0.33250290  0.17985254     1.26060
H208        H  0.76103622  0.32661741  0.18074285     0.38240
O209        O  0.67745716  0.54052007  0.67963378    -0.81720
O210        O  0.87919508  0.66093160  0.67392468    -0.66410
O211        O  0.74380547  0.62168697  0.67343477    -1.13010
C212        C  0.75578250  0.59193548  0.57580988     1.05170
O213        O  0.89412318  0.67042785  0.62660120    -0.79620
O214        O  0.80026604  0.70078143  0.62094805    -0.67200
Ni215      Ni  0.71794879  0.58138102  0.70396802     1.34870
C216        C  0.75379619  0.70221246  0.62294974     0.83910
O217        O  0.80371257  0.67543613  0.70811001    -0.80150
O218        O  0.75406713  0.62065944  0.73201500    -0.90430
C219        C  0.90613026  0.67603013  0.65303433     0.83480
O220        O  0.76777765  0.53421711  0.69813525    -0.68630
O221        O  0.78483378  0.62975644  0.57794984    -0.87920
C222        C  0.81010455  0.54267686  0.70748697     0.84310
C223        C  0.77777323  0.66248045  0.72983473     1.05880
H224        H  0.83127975  0.57330159  0.63854484     0.37680
O225        O  0.81384341  0.60471809  0.63723801    -1.10580
O226        O  0.72767360  0.66168345  0.62175423    -0.67230
Ni227      Ni  0.74341596  0.59367363  0.63610569     1.26350
O228        O  0.83344847  0.58175030  0.69813584    -0.67460
O229        O  0.74522303  0.56597206  0.59817746    -0.79750
C230        C  0.65401031  0.55187302  0.65684820     0.83690
O231        O  0.67333719  0.58066644  0.63756108    -0.66930
Ni232      Ni  0.83705549  0.64692894  0.60545790     1.27450
Ni233      Ni  0.81188722  0.63913000  0.67394931     1.26060
H234        H  0.72639907  0.65285225  0.67399562     0.38240
O235        O  0.58422190  0.80422517  0.90939083    -0.81720
O236        O  0.80892555  0.88621536  0.91540675    -0.66410
O237        O  0.66902739  0.86370025  0.90495686    -1.13010
C238        C  0.73113917  0.80156387  0.81755238     1.05170
O239        O  0.80117421  0.93304061  0.87638799    -0.79620
O240        O  0.72564868  0.93227644  0.84298048    -0.67200
Ni241      Ni  0.63649351  0.82449539  0.93509929     1.34870
C242        C  0.68640730  0.91906919  0.83105559     0.83910
O243        O  0.73123874  0.89979863  0.95028412    -0.80150
O244        O  0.68176709  0.83924485  0.96662224    -0.90430
C245        C  0.82729330  0.91770327  0.89715461     0.83480
O246        O  0.67437388  0.76811142  0.92407733    -0.68630
O247        O  0.75745794  0.84205066  0.81770116    -0.87920
C248        C  0.72093612  0.76496109  0.92429276     0.84310
C249        C  0.71338486  0.87398453  0.97112044     1.05880
H250        H  0.76572693  0.81631499  0.87638621     0.37680
O251        O  0.74634968  0.84649628  0.87511936    -1.10580
O252        O  0.66237202  0.88072606  0.84101886    -0.67230
Ni253      Ni  0.68018232  0.82674809  0.86911473     1.26350
O254        O  0.74836259  0.80458005  0.92668248    -0.67460
O255        O  0.69886238  0.78923351  0.83651281    -0.79750
C256        C  0.57989493  0.79340153  0.88270385     0.83690
O257        O  0.61385716  0.80190990  0.86424944    -0.66930
Ni258      Ni  0.77839914  0.88776106  0.84765952     1.27450
Ni259      Ni  0.73881805  0.87366074  0.91219349     1.26060
H260        H  0.65296071  0.89539251  0.90132447     0.38240
O261        O  0.67655262  0.41863050  0.41972033    -0.81720
O262        O  0.56896531  0.61683386  0.42775466    -0.66410
O263        O  0.59924012  0.47985772  0.41549860    -1.13010
C264        C  0.63402009  0.51369835  0.32083083     1.05170
O265        O  0.56603587  0.64516390  0.38207131    -0.79620
O266        O  0.53139732  0.55227086  0.36847959    -0.67200
Ni267      Ni  0.62284817  0.43600704  0.44361520     1.34870
C268        C  0.52726542  0.50448949  0.36749058     0.83910
O269        O  0.54603770  0.53125747  0.45461560    -0.80150
O270        O  0.56785210  0.45197609  0.46735718    -0.90430
C271        C  0.55799686  0.65024124  0.40903018     0.83480
O272        O  0.66279826  0.48230714  0.46415643    -0.68630
O273        O  0.60135191  0.54632595  0.32547893    -0.87920
C274        C  0.66366754  0.52987685  0.46638522     0.84310
C275        C  0.54108601  0.49097695  0.46972372     1.05880
H276        H  0.65483087  0.57509630  0.38985943     0.37680
O277        O  0.62354747  0.55858929  0.38635281    -1.10580
O278        O  0.56495790  0.47735725  0.36301807    -0.67230
Ni279      Ni  0.63089250  0.48694697  0.37931786     1.26350
O280        O  0.64145872  0.55938995  0.44860402    -0.67460
O281        O  0.65898211  0.49491014  0.34137832    -0.79750
C282        C  0.66606855  0.39408156  0.39710159     0.83690
O283        O  0.64169655  0.41515343  0.37681938    -0.66930
Ni284      Ni  0.58651512  0.59230262  0.35659969     1.27450
Ni285      Ni  0.58608659  0.54766684  0.42209660     1.26060
H286        H  0.56731906  0.46481687  0.41248467     0.38240
O287        O  0.42027835  0.32869086  0.66054923    -0.81720
O288        O  0.33513322  0.55486999  0.66399468    -0.66410
O289        O  0.36095228  0.41234357  0.65584713    -1.13010
C290        C  0.40911867  0.47309652  0.56418618     1.05170
O291        O  0.28664748  0.53812404  0.62838772    -0.79620
O292        O  0.28815544  0.45813066  0.59785975    -0.67200
Ni293      Ni  0.40063173  0.38230536  0.68556540     1.34870
C294        C  0.30277364  0.42015396  0.58487189     0.83910
O295        O  0.32595946  0.47600484  0.70054095    -0.80150
O296        O  0.38662624  0.42930950  0.71652463    -0.90430
C297        C  0.30290785  0.56998604  0.64611139     0.83480
O298        O  0.45328804  0.42366361  0.67176573    -0.68630
O299        O  0.36895464  0.49750726  0.56584771    -0.87920
C300        C  0.45594156  0.47163640  0.67167052     0.84310
C301        C  0.35140588  0.45897876  0.72118663     1.05880
H302        H  0.40077333  0.51324017  0.62300709     0.37680
O303        O  0.37255072  0.49097873  0.62372094    -1.10580
O304        O  0.34201804  0.39917127  0.59345218    -0.67230
Ni305      Ni  0.39470842  0.42459751  0.61889737     1.26350
O306        O  0.41734628  0.49861289  0.67424298    -0.67460
O307        O  0.42643111  0.44447728  0.58403969    -0.79750
C308        C  0.43210730  0.32512896  0.63400731     0.83690
O309        O  0.42288842  0.35893650  0.61516118    -0.66930
Ni310      Ni  0.32726723  0.51738990  0.59758682     1.27450
Ni311      Ni  0.34938543  0.48363832  0.66188764     1.26060
H312        H  0.33042707  0.39388885  0.65323394     0.38240
O313        O  0.29435309  0.94619055  0.67372303    -0.81720
O314        O  0.10935998  0.81556967  0.67589302    -0.66410
O315        O  0.24272737  0.85909629  0.67097896    -1.13010
C316        C  0.22757405  0.87832170  0.57268368     1.05170
O317        O  0.09697158  0.79752215  0.62931645    -0.79620
O318        O  0.19178070  0.77364042  0.62310138    -0.67200
Ni319      Ni  0.27690737  0.89319511  0.69992482     1.34870
C320        C  0.23842720  0.77455637  0.62371815     0.83910
O321        O  0.18718433  0.80804791  0.71081356    -0.80150
O322        O  0.26093168  0.83931052  0.72589000    -0.90430
C323        C  0.08423030  0.79529720  0.65575437     0.83480
O324        O  0.22412054  0.93011372  0.71536458    -0.68630
O325        O  0.19942859  0.84050498  0.57727447    -0.87920
C326        C  0.17779921  0.92776411  0.71283219     0.84310
C327        C  0.22413953  0.80894269  0.72783595     1.05880
H328        H  0.15372748  0.89950764  0.63503774     0.37680
O329        O  0.17280466  0.86906814  0.63519513    -1.10580
O330        O  0.26306498  0.81613854  0.62132216    -0.67230
Ni331      Ni  0.24266172  0.88454694  0.63265801     1.26350
O332        O  0.15572069  0.90018233  0.69404515    -0.67460
O333        O  0.24108036  0.90719421  0.59306830    -0.79750
C334        C  0.32503173  0.93514731  0.65414594     0.83690
O335        O  0.31122549  0.90476481  0.63433870    -0.66930
Ni336      Ni  0.15062402  0.82271344  0.60620665     1.27450
Ni337      Ni  0.17669124  0.83949686  0.67402520     1.26060
H338        H  0.25914123  0.82742716  0.67099570     0.38240
O339        O  0.39320632  0.67020295  0.91144147    -0.81720
O340        O  0.16950033  0.58209994  0.91024927    -0.66410
O341        O  0.31145447  0.60320485  0.90545952    -1.13010
C342        C  0.26191672  0.66175294  0.81419559     1.05170
O343        O  0.18079048  0.53442693  0.87263471    -0.79620
O344        O  0.26237220  0.53273129  0.84548927    -0.67200
Ni345      Ni  0.34191998  0.64206351  0.93619055     1.34870
C346        C  0.30230611  0.54412248  0.83373658     0.83910
O347        O  0.24247849  0.56748379  0.94807171    -0.80150
O348        O  0.29735521  0.61997565  0.96702565    -0.90430
C349        C  0.15247677  0.55081808  0.89187187     0.83480
O350        O  0.30228961  0.69851385  0.92732485    -0.68630
O351        O  0.23593537  0.62105993  0.81406166    -0.87920
C352        C  0.25586407  0.70128358  0.92566057     0.84310
C353        C  0.26249481  0.58782739  0.96983801     1.05880
H354        H  0.21928793  0.65124761  0.87196590     0.37680
O355        O  0.23807347  0.62059907  0.87208920    -1.10580
O356        O  0.32605667  0.58260034  0.84284073    -0.67230
Ni357      Ni  0.30580353  0.63813475  0.86825461     1.26350
O358        O  0.22849683  0.66175535  0.92380188    -0.67460
O359        O  0.29267761  0.67358265  0.83382115    -0.79750
C360        C  0.40209994  0.67616464  0.88452079     0.83690
O361        O  0.37310972  0.66037847  0.86502858    -0.66930
Ni362      Ni  0.20956371  0.57780855  0.84430768     1.27450
Ni363      Ni  0.24033627  0.59375121  0.90979310     1.26060
H364        H  0.32730291  0.57110146  0.90324088     0.38240
O365        O  0.79576877  0.54280310  0.91841414    -0.81720
O366        O  0.91418630  0.35309868  0.92904670    -0.66410
O367        O  0.87896950  0.49003141  0.91737556    -1.13010
C368        C  0.85148451  0.46043121  0.82161451     1.05170
O369        O  0.92220192  0.32898061  0.88309393    -0.79620
O370        O  0.95360909  0.42353992  0.86987486    -0.67200
Ni371      Ni  0.84670264  0.52827727  0.94465783     1.34870
C372        C  0.95674779  0.47137774  0.86864723     0.83910
O373        O  0.92928223  0.43767350  0.95786437    -0.80150
O374        O  0.89804047  0.51296519  0.97132251    -0.90430
C375        C  0.92820502  0.32186853  0.91013932     0.83480
O376        O  0.80499298  0.47832746  0.96070637    -0.68630
O377        O  0.88531008  0.42903521  0.82641562    -0.87920
C378        C  0.81119032  0.43222326  0.96581312     0.84310
C379        C  0.92707256  0.47581415  0.97435408     1.05880
H380        H  0.82944340  0.39490447  0.88940499     0.37680
O381        O  0.86047650  0.41260518  0.88688833    -1.10580
O382        O  0.91814632  0.49821362  0.86562513    -0.67230
Ni383      Ni  0.85108994  0.48459954  0.88033617     1.26350
O384        O  0.83833921  0.40484910  0.94965191    -0.67460
O385        O  0.82566673  0.47789335  0.84198517    -0.79750
C386        C  0.80714991  0.57207802  0.89779453     0.83690
O387        O  0.83705766  0.55670075  0.87848931    -0.66930
Ni388      Ni  0.90044575  0.38213973  0.85758114     1.27450
Ni389      Ni  0.89420808  0.42197545  0.92381360     1.26060
H390        H  0.91013443  0.50765460  0.91555327     0.38240
O391        O  0.06587635  0.63869808  0.16020554    -0.81720
O392        O  0.14101300  0.40800374  0.16881822    -0.66410
O393        O  0.12162014  0.55170740  0.15671772    -1.13010
C394        C  0.05297483  0.48586513  0.07073727     1.05170
O395        O  0.18182679  0.42015301  0.12899035    -0.79620
O396        O  0.17661683  0.48395059  0.08711350    -0.67200
Ni397      Ni  0.08574613  0.58589311  0.18640433     1.34870
C398        C  0.16942179  0.52900498  0.07993252     0.83910
O399        O  0.15712168  0.48901510  0.20203804    -0.80150
O400        O  0.09996982  0.53976675  0.21827305    -0.90430
C401        C  0.17141026  0.39171189  0.15015268     0.83480
O402        O  0.03017710  0.54699336  0.17546008    -0.68630
O403        O  0.08402062  0.45038500  0.07337167    -0.87920
C404        C  0.02459834  0.49944672  0.17693126     0.84310
C405        C  0.13354681  0.50794056  0.22277563     1.05880
H406        H  0.06861443  0.45487564  0.13056558     0.37680
O407        O  0.09963568  0.47259838  0.12830429    -1.10580
O408        O  0.13911910  0.55648339  0.09379526    -0.67230
Ni409      Ni  0.08488241  0.54036927  0.12100478     1.26350
O410        O  0.06183346  0.47073434  0.18061415    -0.67460
O411        O  0.04811038  0.52284920  0.08788930    -0.79750
C412        C  0.05522224  0.64252449  0.13345164     0.83690
O413        O  0.06455608  0.60855730  0.11514422    -0.66930
Ni414      Ni  0.13290724  0.43440581  0.10153225     1.27450
Ni415      Ni  0.12897772  0.48017130  0.16480436     1.26060
H416        H  0.15303735  0.56791273  0.15289586     0.38240
C417        C  0.95564485  0.44069058  0.02065573    -0.02670
C418        C  0.96019500  0.47732951  0.99849641     0.07010
C419        C  0.99545534  0.51647092  0.99976646    -0.02790
C420        C  0.02589464  0.51974761  0.02390750    -0.02790
C421        C  0.02063249  0.48370317  0.04629398     0.07140
C422        C  0.98546869  0.44455272  0.04501831    -0.02990
Br423      Br  0.97666457  0.39801304  0.07726397    -0.01530
Br424      Br  0.90881994  0.38550513  0.01792622    -0.01610
Br425      Br  0.07517227  0.57276153  0.02597934    -0.01570
Br426      Br  0.00376390  0.56363523  0.96776123    -0.01550
C427        C  0.01471476  0.54719900  0.87788878    -0.02670
C428        C  0.00704390  0.49498622  0.87241237     0.07010
C429        C  0.04861612  0.46334899  0.87310010    -0.02790
C430        C  0.09308107  0.48045322  0.88508565    -0.02790
C431        C  0.10077193  0.53208129  0.89091275     0.07140
C432        C  0.06169906  0.56560983  0.88629541    -0.02990
Br433      Br  0.07376690  0.63728995  0.88824634    -0.01530
Br434      Br  0.96417807  0.59552618  0.87001035    -0.01610
Br435      Br  0.14471873  0.43255407  0.89242774    -0.01570
Br436      Br  0.04969376  0.40053761  0.85192702    -0.01550
C437        C  0.22847611  0.52338644  0.00472698    -0.02670
C438        C  0.24333569  0.57372015  0.99933499     0.07010
C439        C  0.23541327  0.61017402  0.02118704    -0.02790
C440        C  0.21277046  0.59613374  0.04795203    -0.02790
C441        C  0.19540753  0.54617049  0.05261602     0.07140
C442        C  0.20226051  0.51037388  0.03004080    -0.02990
Br443      Br  0.17185667  0.44361793  0.03093427    -0.01530
Br444      Br  0.24571385  0.47056582  0.97783302    -0.01610
Br445      Br  0.20608996  0.64542354  0.07810773    -0.01570
Br446      Br  0.25287137  0.68014775  0.01425506    -0.01550
C447        C  0.23138116  0.71997097  0.74222792    -0.02670
C448        C  0.22668561  0.77073952  0.75028707     0.07010
C449        C  0.23267279  0.78560217  0.77914059    -0.02790
C450        C  0.24378033  0.74946330  0.80017512    -0.02790
C451        C  0.25248536  0.69916209  0.79177904     0.07140
C452        C  0.24633186  0.68439417  0.76278798    -0.02990
Br453      Br  0.26127451  0.61669523  0.75067865    -0.01530
Br454      Br  0.21901553  0.69923449  0.70292105    -0.01610
Br455      Br  0.24349469  0.76925222  0.84047874    -0.01570
Br456      Br  0.22500623  0.85541632  0.78984221    -0.01550
C457        C  0.31329601  0.66476261  0.65441449    -0.02670
C458        C  0.28652258  0.62343691  0.64277373     0.07010
C459        C  0.24661220  0.63370679  0.62388374    -0.02790
C460        C  0.23818926  0.68288912  0.61400265    -0.02790
C461        C  0.26224440  0.72438219  0.62693062     0.07140
C462        C  0.30081634  0.71492060  0.64679596    -0.02990
Br463      Br  0.33647997  0.76919156  0.66478376    -0.01530
Br464      Br  0.36442731  0.65421970  0.68277444    -0.01610
Br465      Br  0.19431017  0.69271534  0.58137644    -0.01570
Br466      Br  0.19789676  0.58271147  0.61360204    -0.01550
C467        C  0.29156416  0.47434809  0.76132672    -0.02670
C468        C  0.34040999  0.47549352  0.75131677     0.07010
C469        C  0.37776722  0.49451609  0.76965865    -0.02790
C470        C  0.36602786  0.51382510  0.79731767    -0.02790
C471        C  0.31658342  0.51626166  0.80668191     0.07140
C472        C  0.27932836  0.49526865  0.78834081    -0.02990
Br473      Br  0.20984874  0.49722964  0.79776962    -0.01530
Br474      Br  0.24081232  0.44278350  0.73797037    -0.01610
Br475      Br  0.41844448  0.53508748  0.82254513    -0.01570
Br476      Br  0.44506201  0.49739072  0.75629187    -0.01550
C477        C  0.47246774  0.44584316  0.49441223    -0.02670
C478        C  0.50276651  0.48934567  0.49173844     0.07010
C479        C  0.49836487  0.52959125  0.51134257    -0.02790
C480        C  0.46541694  0.52486228  0.53448196    -0.02790
C481        C  0.43802752  0.47991299  0.53816673     0.07140
C482        C  0.44065799  0.44079007  0.51806627    -0.02990
Br483      Br  0.40122147  0.38022882  0.52325234    -0.01530
Br484      Br  0.47337893  0.39354754  0.46552104    -0.01610
Br485      Br  0.45999256  0.57857659  0.56227594    -0.01570
Br486      Br  0.53984550  0.58945653  0.50844186    -0.01550
C487        C  0.48787333  0.78935703  0.87723926    -0.02670
C488        C  0.53385609  0.76649649  0.87390427     0.07010
C489        C  0.53503323  0.71457795  0.86724474    -0.02790
C490        C  0.49213645  0.68413475  0.87041034    -0.02790
C491        C  0.44661864  0.70658918  0.87612624     0.07140
C492        C  0.44436432  0.75973965  0.87628530    -0.02990
Br493      Br  0.38172534  0.79170771  0.87336434    -0.01530
Br494      Br  0.48462848  0.86112382  0.88299421    -0.01610
Br495      Br  0.49620890  0.61197478  0.86817229    -0.01570
Br496      Br  0.59491076  0.68546319  0.85335055    -0.01550
C497        C  0.81665781  0.66195261  0.91259592    -0.02670
C498        C  0.78768703  0.62371512  0.89973341     0.07010
C499        C  0.73633379  0.62891982  0.89943960    -0.02790
C500        C  0.71433577  0.67184617  0.91131289    -0.02790
C501        C  0.74367428  0.71397143  0.91996215     0.07140
C502        C  0.79515118  0.70703641  0.92228749    -0.02990
Br503      Br  0.83588013  0.75415863  0.94348581    -0.01530
Br504      Br  0.88512486  0.65004753  0.92011285    -0.01610
Br505      Br  0.64526300  0.66637637  0.92096498    -0.01570
Br506      Br  0.69574187  0.57512720  0.88392716    -0.01550
C507        C  0.95015321  0.75679435  0.66554694    -0.02670
C508        C  0.95219635  0.70464249  0.65943126     0.07010
C509        C  0.99819954  0.68174865  0.65678290    -0.02790
C510        C  0.04171325  0.71126523  0.65828797    -0.02790
C511        C  0.03964674  0.76405823  0.66232718     0.07140
C512        C  0.99376722  0.78641665  0.66694035    -0.02990
Br513      Br  0.99074043  0.85809552  0.67309246    -0.01530
Br514      Br  0.88720044  0.78829228  0.67000382    -0.01610
Br515      Br  0.10453966  0.67961644  0.65358594    -0.01570
Br516      Br  0.00125423  0.61015848  0.65018719    -0.01550
C517        C  0.79346451  0.47774132  0.74763068    -0.02670
C518        C  0.82689197  0.51235070  0.73348833     0.07010
C519        C  0.87178673  0.52385714  0.74775286    -0.02790
C520        C  0.87998568  0.50636915  0.77641380    -0.02790
C521        C  0.84358702  0.47771173  0.79132287     0.07140
C522        C  0.80103975  0.46253334  0.77662731    -0.02990
Br523      Br  0.75315918  0.41989424  0.79656025    -0.01530
Br524      Br  0.73743393  0.44771864  0.72822723    -0.01610
Br525      Br  0.94046574  0.52391926  0.79585988    -0.01570
Br526      Br  0.92352173  0.56210607  0.72842988    -0.01550
C527        C  0.77664601  0.68548696  0.78167645    -0.02670
C528        C  0.77110162  0.69933034  0.75244410     0.07010
C529        C  0.75253507  0.74707867  0.74464727    -0.02790
C530        C  0.73578229  0.77923496  0.76608332    -0.02790
C531        C  0.74163906  0.76556052  0.79518906     0.07140
C532        C  0.76336823  0.71957966  0.80308095    -0.02990
Br533      Br  0.77827469  0.70504793  0.84296655    -0.01530
Br534      Br  0.80456370  0.62132526  0.79231955    -0.01610
Br535      Br  0.70261986  0.84065075  0.75565751    -0.01570
Br536      Br  0.74894624  0.76916714  0.70483104    -0.01550
C537        C  0.51446336  0.54177187  0.65326506    -0.02670
C538        C  0.50624508  0.49499297  0.66802386     0.07010
C539        C  0.54771143  0.46623986  0.67598862    -0.02790
C540        C  0.59503042  0.48138918  0.66715065    -0.02790
C541        C  0.60357794  0.52924934  0.65432136     0.07140
C542        C  0.56275363  0.55803661  0.64586507    -0.02990
Br543      Br  0.57194879  0.61806273  0.62247308    -0.01530
Br544      Br  0.46134656  0.58666383  0.64462173    -0.01610
Br545      Br  0.64806335  0.43401191  0.67050019    -0.01570
Br546      Br  0.54223501  0.40909619  0.70248888    -0.01550
C547        C  0.75001495  0.59774654  0.51988377    -0.02670
C548        C  0.73185784  0.57892995  0.54713542     0.07010
C549        C  0.68998742  0.54627900  0.54671970    -0.02790
C550        C  0.67046503  0.52916262  0.52041456    -0.02790
C551        C  0.68707807  0.54929028  0.49350135     0.07140
C552        C  0.72653262  0.58424244  0.49344548    -0.02990
Br553      Br  0.75076074  0.61014429  0.45680617    -0.01530
Br554      Br  0.80825927  0.64016542  0.51747727    -0.01610
Br555      Br  0.62155176  0.47543905  0.52250510    -0.01570
Br556      Br  0.65496376  0.52522936  0.58152461    -0.01550
C557        C  0.66352247  0.50882882  0.24023990    -0.02670
C558        C  0.64320054  0.46114554  0.23249884     0.07010
C559        C  0.61387361  0.43496446  0.25325274    -0.02790
C560        C  0.61408580  0.45024215  0.28244468    -0.02790
C561        C  0.63896850  0.49492583  0.29075332     0.07140
C562        C  0.66135339  0.52548013  0.26920252    -0.02990
Br563      Br  0.69094623  0.58929501  0.27976986    -0.01530
Br564      Br  0.69306046  0.55256918  0.21106599    -0.01610
Br565      Br  0.58093888  0.40856112  0.31097741    -0.01570
Br566      Br  0.57096260  0.37979937  0.24203356    -0.01550
C567        C  0.91506297  0.40983898  0.16038262    -0.02670
C568        C  0.87628209  0.44428844  0.15868379     0.07010
C569        C  0.88590475  0.49572865  0.16366567    -0.02790
C570        C  0.93252593  0.51217323  0.17296657    -0.02790
C571        C  0.97306971  0.47859201  0.17306447     0.07140
C572        C  0.96334599  0.42689892  0.16669237    -0.02990
Br573      Br  0.01414702  0.37731398  0.16745083    -0.01530
Br574      Br  0.90148057  0.33844460  0.15585360    -0.01610
Br575      Br  0.93648949  0.57969055  0.18884500    -0.01570
Br576      Br  0.83464097  0.54448617  0.15719325    -0.01550
C577        C  0.78122166  0.42649382  0.04667364    -0.02670
C578        C  0.75207118  0.38179066  0.04985479     0.07010
C579        C  0.74476985  0.35151322  0.02463185    -0.02790
C580        C  0.76507861  0.36656979  0.99731633    -0.02790
C581        C  0.78950725  0.41354289  0.99406597     0.07140
C582        C  0.79520687  0.44429160  0.01904760    -0.02990
Br583      Br  0.82205267  0.51265316  0.01717816    -0.01530
Br584      Br  0.80779299  0.46356626  0.07957298    -0.01610
Br585      Br  0.75634864  0.32458201  0.96374000    -0.01570
Br586      Br  0.70831821  0.28840407  0.02634023    -0.01550
C587        C  0.71865708  0.32613682  0.37787291    -0.02670
C588        C  0.68052770  0.34072214  0.39626305     0.07010
C589        C  0.66301767  0.30701184  0.41802135    -0.02790
C590        C  0.68516615  0.25979189  0.42223170    -0.02790
C591        C  0.72554918  0.24620891  0.40494443     0.07140
C592        C  0.74189568  0.27969254  0.38259907    -0.02990
Br593      Br  0.79760148  0.26440124  0.35896259    -0.01530
Br594      Br  0.74116056  0.37168535  0.34746806    -0.01610
Br595      Br  0.66349984  0.21647236  0.45386707    -0.01570
Br596      Br  0.60930899  0.32626572  0.44276047    -0.01550
C597        C  0.71128932  0.21011486  0.28762839    -0.02670
C598        C  0.76186645  0.19872042  0.28780236     0.07010
C599        C  0.79608194  0.23104820  0.27395597    -0.02790
C600        C  0.77971167  0.27357464  0.25882164    -0.02790
C601        C  0.72901603  0.28438750  0.25816951     0.07140
C602        C  0.69497913  0.25285187  0.27270660    -0.02990
Br603      Br  0.62600692  0.26837871  0.27233972    -0.01530
Br604      Br  0.66394106  0.16942359  0.30928514    -0.01610
Br605      Br  0.82697124  0.31380412  0.23680461    -0.01570
Br606      Br  0.86520270  0.21647672  0.27482626    -0.01550
C607        C  0.00930904  0.28203462  0.91892462    -0.02670
C608        C  0.95761117  0.27731960  0.91892779     0.07010
C609        C  0.93604238  0.22905795  0.92248436    -0.02790
C610        C  0.96598075  0.18584596  0.92348411    -0.02790
C611        C  0.01705268  0.19031634  0.91790895     0.07140
C612        C  0.03882072  0.23885728  0.91688226    -0.02990
Br613      Br  0.10896159  0.24607934  0.91249988    -0.01530
Br614      Br  0.03937790  0.34791669  0.92213652    -0.01610
Br615      Br  0.93691184  0.12077100  0.93221842    -0.01570
Br616      Br  0.86566460  0.22248324  0.92525868    -0.01550
C617        C  0.96413820  0.92271557  0.88390156    -0.02670
C618        C  0.97198874  0.97528411  0.87874668     0.07010
C619        C  0.93052473  0.00720460  0.88081854    -0.02790
C620        C  0.88612836  0.98890473  0.89277366    -0.02790
C621        C  0.87857893  0.93690604  0.89773064     0.07140
C622        C  0.91756268  0.90381551  0.89282926    -0.02990
Br623      Br  0.90556549  0.83191395  0.89512362    -0.01530
Br624      Br  0.01306186  0.87419920  0.87436629    -0.01610
Br625      Br  0.83358908  0.03520664  0.90081775    -0.01570
Br626      Br  0.92855356  0.07266758  0.86165511    -0.01550
C627        C  0.18205410  0.75954750  0.92284835    -0.02670
C628        C  0.23351587  0.75273471  0.92369447     0.07010
C629        C  0.26406505  0.79609613  0.92034089    -0.02790
C630        C  0.24534196  0.84053796  0.90807282    -0.02790
C631        C  0.19421322  0.84632543  0.90464566     0.07140
C632        C  0.16270786  0.80655689  0.91410039    -0.02990
Br633      Br  0.09399821  0.81867029  0.91977688    -0.01530
Br634      Br  0.13826355  0.70924848  0.93973188    -0.01610
Br635      Br  0.29040689  0.89477601  0.89738909    -0.01570
Br636      Br  0.32685918  0.80053309  0.93977908    -0.01550
C637        C  0.16415288  0.00387419  0.74356879    -0.02670
C638        C  0.15027643  0.95404626  0.73605582     0.07010
C639        C  0.12387172  0.92430216  0.75659162    -0.02790
C640        C  0.11737952  0.94159885  0.78517371    -0.02790
C641        C  0.13401830  0.99012810  0.79317058     0.07140
C642        C  0.15528547  0.02210865  0.77180053    -0.02990
Br643      Br  0.17539537  0.08975831  0.78183584    -0.01530
Br644      Br  0.19698824  0.04645812  0.71520055    -0.01610
Br645      Br  0.08768210  0.89745494  0.81376619    -0.01570
Br646      Br  0.09970285  0.85786835  0.74662806    -0.01550
C647        C  0.01465592  0.77790496  0.12712482    -0.02670
C648        C  0.96330418  0.77083321  0.12457716     0.07010
C649        C  0.94414206  0.72233817  0.11900419    -0.02790
C650        C  0.97582782  0.68064870  0.11809412    -0.02790
C651        C  0.02640243  0.68703069  0.12439791     0.07140
C652        C  0.04594835  0.73604882  0.12774872    -0.02990
Br653      Br  0.11543384  0.74537557  0.13415995    -0.01530
Br654      Br  0.04191632  0.84504960  0.13130805    -0.01610
Br655      Br  0.94918963  0.61424112  0.11036979    -0.01570
Br656      Br  0.87435328  0.71285328  0.11451141    -0.01550
C657        C  0.76815558  0.85324472  0.04694853    -0.02670
C658        C  0.77317721  0.90330548  0.05702726     0.07010
C659        C  0.75468163  0.94319694  0.03913785    -0.02790
C660        C  0.73368601  0.93294254  0.01181084    -0.02790
C661        C  0.73124477  0.88334573  0.00129514     0.07140
C662        C  0.74762483  0.84336172  0.01930207    -0.02990
Br663      Br  0.74460941  0.77473686  0.00567674    -0.01530
Br664      Br  0.78811186  0.79751340  0.07120099    -0.01610
Br665      Br  0.70665987  0.98741555  0.98878864    -0.01570
Br666      Br  0.75964535  0.01368794  0.04984110    -0.01550
C667        C  0.77737083  0.14099510  0.16469142    -0.02670
C668        C  0.80873497  0.12414737  0.14289234     0.07010
C669        C  0.82192120  0.15676109  0.11967458    -0.02790
C670        C  0.80027029  0.20439776  0.11679948    -0.02790
C671        C  0.76541621  0.21969360  0.13735640     0.07140
C672        C  0.75573600  0.18856907  0.16186658    -0.02990
Br673      Br  0.71296175  0.21007324  0.19184304    -0.01530
Br674      Br  0.76154396  0.09736168  0.19735349    -0.01610
Br675      Br  0.81545595  0.24661150  0.08345886    -0.01570
Br676      Br  0.86938348  0.13569250  0.09158742    -0.01550
C677        C  0.83060731  0.94433597  0.27033404    -0.02670
C678        C  0.85306292  0.97394653  0.24838973     0.07010
C679        C  0.87672034  0.01966854  0.25590000    -0.02790
C680        C  0.87447467  0.03759664  0.28461599    -0.02790
C681        C  0.84608444  0.01139568  0.30587925     0.07140
C682        C  0.82758393  0.96256867  0.29894404    -0.02990
Br683      Br  0.79835464  0.91991270  0.32874117    -0.01530
Br684      Br  0.80170254  0.87971976  0.26071576    -0.01610
Br685      Br  0.91125760  0.09766411  0.29420321    -0.01570
Br686      Br  0.91198191  0.05833176  0.22665594    -0.01550
C687        C  0.95764811  0.01465194  0.02718355    -0.02670
C688        C  0.95049424  0.96487870  0.03784341     0.07010
C689        C  0.98395598  0.92687146  0.03044017    -0.02790
C690        C  0.02511691  0.93896484  0.01334353    -0.02790
C691        C  0.03292468  0.98920799  0.00375355     0.07140
C692        C  0.00031000  0.02725021  0.01176956    -0.02990
Br693      Br  0.01524350  0.09740915  0.00258061    -0.01530
Br694      Br  0.90958954  0.06650932  0.03245034    -0.01610
Br695      Br  0.06898359  0.88563328  0.00229982    -0.01570
Br696      Br  0.97175143  0.85720996  0.04183973    -0.01550
C697        C  0.51374175  0.28650450  0.62561615    -0.02670
C698        C  0.46202118  0.28117095  0.62588354     0.07010
C699        C  0.44052580  0.23273016  0.62366853    -0.02790
C700        C  0.47043182  0.18974458  0.62295776    -0.02790
C701        C  0.52195494  0.19490547  0.62567701     0.07140
C702        C  0.54359196  0.24345412  0.62615821    -0.02990
Br703      Br  0.61397697  0.25059802  0.62895681    -0.01530
Br704      Br  0.54364520  0.35292888  0.62662371    -0.01610
Br705      Br  0.44045760  0.12333219  0.62097290    -0.01570
Br706      Br  0.37008461  0.22526387  0.62337354    -0.01550
C707        C  0.43479620  0.01181678  0.68105966    -0.02670
C708        C  0.47533947  0.98142409  0.67357361     0.07010
C709        C  0.46546157  0.93493679  0.65957177    -0.02790
C710        C  0.41711840  0.92165626  0.65096608    -0.02790
C711        C  0.37717632  0.95323207  0.65742744     0.07140
C712        C  0.38691854  0.99916055  0.67184189    -0.02990
Br713      Br  0.33536916  0.04775925  0.67729723    -0.01530
Br714      Br  0.44282375  0.06894672  0.70665033    -0.01610
Br715      Br  0.40682479  0.85971930  0.63007451    -0.01570
Br716      Br  0.51629111  0.88644499  0.65348987    -0.01550
C717        C  0.68546247  0.04863077  0.49099814    -0.02670
C718        C  0.72818786  0.08020231  0.49052032     0.07010
C719        C  0.74388430  0.10139553  0.51748171    -0.02790
C720        C  0.71809879  0.09036133  0.54379746    -0.02790
C721        C  0.67635038  0.05842479  0.54386216     0.07140
C722        C  0.65988010  0.03885183  0.51707904    -0.02990
Br723      Br  0.60102423  0.99743721  0.51540446    -0.01530
Br724      Br  0.65978651  0.01620705  0.45656968    -0.01610
Br725      Br  0.74123160  0.11658723  0.58021710    -0.01570
Br726      Br  0.80273038  0.14279229  0.51987935    -0.01550
C727        C  0.74037457  0.84502035  0.62518554    -0.02670
C728        C  0.69612128  0.85077301  0.64078423     0.07010
C729        C  0.67065881  0.80736934  0.65086479    -0.02790
C730        C  0.68694735  0.75882148  0.64342021    -0.02790
C731        C  0.73077779  0.75282439  0.62701026     0.07140
C732        C  0.75626147  0.79691538  0.61716778    -0.02990
Br733      Br  0.81025850  0.79338866  0.58980868    -0.01530
Br734      Br  0.78155631  0.90334510  0.61597707    -0.01610
Br735      Br  0.64765555  0.70223024  0.65669965    -0.01570
Br736      Br  0.61479410  0.81351392  0.67638215    -0.01550
C737        C  0.61246317  0.97644607  0.76774478    -0.02670
C738        C  0.65034323  0.99108295  0.74795375     0.07010
C739        C  0.69953658  0.98440835  0.75637680    -0.02790
C740        C  0.71093549  0.96194280  0.78341834    -0.02790
C741        C  0.67300824  0.94602882  0.80317340     0.07140
C742        C  0.62376019  0.95441899  0.79511343    -0.02990
Br743      Br  0.57146354  0.93756448  0.82198398    -0.01530
Br744      Br  0.54434517  0.98373325  0.75713307    -0.01610
Br745      Br  0.77987333  0.95052729  0.79126706    -0.01570
Br746      Br  0.75230208  0.00756219  0.73103910    -0.01550
C747        C  0.51925920  0.78665056  0.41520508    -0.02670
C748        C  0.46791979  0.78041381  0.41888459     0.07010
C749        C  0.44833182  0.73166047  0.42413104    -0.02790
C750        C  0.47941865  0.68943019  0.42455213    -0.02790
C751        C  0.52995468  0.69526167  0.41795028     0.07140
C752        C  0.54996058  0.74420233  0.41415989    -0.02990
Br753      Br  0.61914892  0.75259890  0.40619410    -0.01530
Br754      Br  0.54703259  0.85335887  0.40900386    -0.01610
Br755      Br  0.45183688  0.62283673  0.43156546    -0.01570
Br756      Br  0.37841851  0.72223572  0.42800104    -0.01550
C757        C  0.28160560  0.85399835  0.49794348    -0.02670
C758        C  0.27298357  0.90003692  0.48312923     0.07010
C759        C  0.24693163  0.93839787  0.49818751    -0.02790
C760        C  0.23340351  0.93153970  0.52757730    -0.02790
C761        C  0.24526125  0.88696608  0.54251121     0.07140
C762        C  0.26916155  0.84812018  0.52754222    -0.02990
Br763      Br  0.28765066  0.78746352  0.54809614    -0.01530
Br764      Br  0.30758826  0.79712634  0.47756185    -0.01610
Br765      Br  0.19694633  0.98289149  0.54751016    -0.01570
Br766      Br  0.22869380  0.00170076  0.48006062    -0.01550
C767        C  0.54722211  0.96944315  0.35724263    -0.02670
C768        C  0.51011449  0.99286436  0.37349358     0.07010
C769        C  0.52353918  0.03343801  0.39165960    -0.02790
C770        C  0.57262709  0.05126868  0.39275613    -0.02790
C771        C  0.61033825  0.02458616  0.37860201     0.07140
C772        C  0.59692267  0.98196382  0.36169802    -0.02990
Br773      Br  0.64512540  0.93659623  0.34587770    -0.01530
Br774      Br  0.53031624  0.92142109  0.32727760    -0.01610
Br775      Br  0.58617835  0.11369404  0.41296143    -0.01570
Br776      Br  0.47686225  0.06338259  0.41699871    -0.01550
C777        C  0.46962808  0.93765795  0.54692302    -0.02670
C778        C  0.49065839  0.98591030  0.55238350     0.07010
C779        C  0.47465473  0.02865969  0.53651788    -0.02790
C780        C  0.44008797  0.02237190  0.51438738    -0.02790
C781        C  0.42313864  0.97362653  0.50742962     0.07140
C782        C  0.43655177  0.93161040  0.52409042    -0.02990
Br783      Br  0.41044339  0.86548185  0.51501154    -0.01530
Br784      Br  0.48605275  0.87869272  0.56981322    -0.01610
Br785      Br  0.41949771  0.08014446  0.49171220    -0.01570
Br786      Br  0.50346739  0.09523510  0.54186787    -0.01550
C787        C  0.44521918  0.25925854  0.15770361    -0.02670
C788        C  0.44428063  0.20664927  0.16296254     0.07010
C789        C  0.48751860  0.18268601  0.17182861    -0.02790
C790        C  0.53178866  0.21078299  0.17415188    -0.02790
C791        C  0.53370281  0.26240369  0.16614265     0.07140
C792        C  0.48989094  0.28681190  0.15869700    -0.02990
Br793      Br  0.49168146  0.35767529  0.14869831    -0.01530
Br794      Br  0.38524441  0.29334197  0.14828740    -0.01610
Br795      Br  0.59024171  0.17751524  0.18669818    -0.01570
Br796      Br  0.48720120  0.11061103  0.17781941    -0.01550
C797        C  0.23688201  0.33556919  0.13285037    -0.02670
C798        C  0.19356704  0.34059152  0.14956088     0.07010
C799        C  0.16699884  0.29654126  0.15767847    -0.02790
C800        C  0.18126631  0.24884105  0.14717999    -0.02790
C801        C  0.22327017  0.24472898  0.12906638     0.07140
C802        C  0.24847312  0.28936228  0.12045455    -0.02990
Br803      Br  0.29484863  0.28933279  0.08846966    -0.01530
Br804      Br  0.28267229  0.39172887  0.12749207    -0.01610
Br805      Br  0.13965279  0.19127327  0.15579174    -0.01570
Br806      Br  0.11270784  0.30063318  0.18425988    -0.01550
C807        C  0.37111125  0.03689962  0.25210300    -0.02670
C808        C  0.33639476  0.01247992  0.23401221     0.07010
C809        C  0.31769488  0.96456352  0.24293576    -0.02790
C810        C  0.32679632  0.94589334  0.27115967    -0.02790
C811        C  0.35558011  0.97433635  0.29051085     0.07140
C812        C  0.37977367  0.01848440  0.28044893    -0.02990
Br813      Br  0.42317903  0.05494931  0.30613827    -0.01530
Br814      Br  0.40635469  0.09610800  0.23894179    -0.01610
Br815      Br  0.29792876  0.88254607  0.28393449    -0.01570
Br816      Br  0.27911878  0.92459759  0.21641868    -0.01550
C817        C  0.05103709  0.95590393  0.17883268    -0.02670
C818        C  0.01108231  0.98286154  0.16724344     0.07010
C819        C  0.02101979  0.02705802  0.15050520    -0.02790
C820        C  0.06977106  0.04055361  0.14286509    -0.02790
C821        C  0.10975065  0.01317916  0.15434191     0.07140
C822        C  0.09956926  0.96935786  0.17134223    -0.02990
Br823      Br  0.15115717  0.92357877  0.18244155    -0.01530
Br824      Br  0.04034289  0.90350952  0.20794409    -0.01610
Br825      Br  0.07983815  0.09513896  0.11518320    -0.01570
Br826      Br  0.96958541  0.07292035  0.13971896    -0.01550
C827        C  0.19554961  0.11340742  0.99966704    -0.02670
C828        C  0.20004796  0.06554247  0.98662584     0.07010
C829        C  0.22558465  0.02705046  0.00234477    -0.02790
C830        C  0.24489776  0.03644556  0.03017655    -0.02790
C831        C  0.23882343  0.08351824  0.04326952     0.07140
C832        C  0.21438970  0.12211564  0.02782314    -0.02990
Br833      Br  0.20409554  0.18656632  0.04586311    -0.01530
Br834      Br  0.16490317  0.16819334  0.97895445    -0.01610
Br835      Br  0.28149465  0.98472923  0.05035380    -0.01570
Br836      Br  0.23354629  0.95915294  0.98787837    -0.01550
C837        C  0.03687088  0.22218448  0.36600049    -0.02670
C838        C  0.03856218  0.27054152  0.37883240     0.07010
C839        C  0.99495643  0.29096213  0.38981427    -0.02790
C840        C  0.95168003  0.26141930  0.39124290    -0.02790
C841        C  0.95099112  0.21133978  0.38089905     0.07140
C842        C  0.99335731  0.19236712  0.36751054    -0.02990
Br843      Br  0.99358906  0.12357585  0.35443831    -0.01530
Br844      Br  0.09439748  0.19515409  0.34765450    -0.01610
Br845      Br  0.89390015  0.28967529  0.40872728    -0.01570
Br846      Br  0.99453975  0.36010470  0.40277052    -0.01550
C847        C  0.19272655  0.49357343  0.26311503    -0.02670
C848        C  0.14426004  0.49099178  0.25286714     0.07010
C849        C  0.10689927  0.47011089  0.27087483    -0.02790
C850        C  0.11832398  0.45043840  0.29865456    -0.02790
C851        C  0.16744038  0.45082403  0.30863867     0.07140
C852        C  0.20461971  0.47350777  0.29056250    -0.02990
Br853      Br  0.27357342  0.47536791  0.30108907    -0.01530
Br854      Br  0.24326351  0.52557860  0.23928789    -0.01610
Br855      Br  0.06603218  0.42383555  0.32300863    -0.01570
Br856      Br  0.04025408  0.46530605  0.25681282    -0.01550
C857        C  0.21534382  0.17244860  0.40836179    -0.02670
C858        C  0.24803287  0.21321681  0.41540297     0.07010
C859        C  0.29922563  0.20421774  0.41430928    -0.02790
C860        C  0.31711498  0.15852520  0.40320741    -0.02790
C861        C  0.28448811  0.11922732  0.39538437     0.07140
C862        C  0.23363181  0.12713784  0.39726346    -0.02990
Br863      Br  0.18848892  0.07483396  0.38431293    -0.01530
Br864      Br  0.14578605  0.17261771  0.41755362    -0.01610
Br865      Br  0.38679872  0.14943556  0.39987578    -0.01570
Br866      Br  0.34534068  0.24892033  0.43326622    -0.01550
C867        C  0.28204673  0.26477835  0.28223034    -0.02670
C868        C  0.23392274  0.27852384  0.28946874     0.07010
C869        C  0.19335947  0.25721234  0.27529257    -0.02790
C870        C  0.20050269  0.21913479  0.25501569    -0.02790
C871        C  0.24887910  0.20328528  0.24839384     0.07140
C872        C  0.28967793  0.22817508  0.26115072    -0.02990
Br873      Br  0.35653088  0.21277747  0.25102109    -0.01530
Br874      Br  0.33779910  0.29321373  0.30283103    -0.01610
Br875      Br  0.14299055  0.19156797  0.23588594    -0.01570
Br876      Br  0.12815491  0.28180924  0.28316524    -0.01550
C877        C  0.42496341  0.40928583  0.38951419    -0.02670
C878        C  0.38443746  0.44133894  0.39167569     0.07010
C879        C  0.39080940  0.49307350  0.38499052    -0.02790
C880        C  0.43545106  0.51154786  0.37353759    -0.02790
C881        C  0.47770231  0.48070118  0.37342056     0.07140
C882        C  0.47179612  0.42891041  0.38175245    -0.02990
Br883      Br  0.52559589  0.38214905  0.38194104    -0.01530
Br884      Br  0.41566524  0.33747677  0.39444302    -0.01610
Br885      Br  0.43458905  0.57718905  0.35450208    -0.01570
Br886      Br  0.33742632  0.53936280  0.39104478    -0.01550
C887        C  0.26055466  0.44567571  0.53801071    -0.02670
C888        C  0.27870204  0.40670995  0.55663447     0.07010
C889        C  0.27749311  0.35651650  0.54658216    -0.02790
C890        C  0.26093399  0.34565188  0.51824348    -0.02790
C891        C  0.24453174  0.38472831  0.49969165     0.07140
C892        C  0.24372240  0.43447175  0.50990415    -0.02990
Br893      Br  0.21779713  0.48766930  0.48543840    -0.01530
Br894      Br  0.25936264  0.51600774  0.54913907    -0.01610
Br895      Br  0.26356848  0.27723051  0.50435822    -0.01570
Br896      Br  0.29690555  0.30195999  0.57180074    -0.01550
loop_ 
_geom_bond_atom_site_label_1 
_geom_bond_atom_site_label_2 
_geom_bond_distance 
_geom_bond_site_symmetry_2 
_ccdc_geom_bond_type 
O1           Ni7   1.916       .  S
O1           C22   1.271       .  A
O2          Ni25   1.936       .  S
O2           C11   1.277       .  A
O3           Ni7   1.923       .  S
O3          Ni25   1.939       .  S
O3          Ni19   1.951       .  S
O3           H26   0.966       .  S
C4           O21   1.277       .  A
C4           O13   1.282       .  A
C4          C868   1.449       .  S
O5          Ni24   1.898       .  S
O5           C11   1.263       .  A
O6          Ni24   1.886       .  S
O6            C8   1.246       .  A
Ni7          O10   1.932       .  S
Ni7          O12   1.888       .  S
C8           O18   1.271       .  A
C8          C851   1.502       .  S
O9          Ni25   1.906       .  S
O9           C15   1.264       .  A
O10          C15   1.265       .  A
C11         C878   1.483       .  S
O12          C14   1.269       .  A
O13         Ni24   1.938       .  S
C14          O20   1.289       .  A
C14         C858   1.510       .  S
C15         C891   1.487       .  S
H16          O17   0.967       .  S
O17         Ni25   1.871       .  S
O17         Ni19   1.892       .  S
O17         Ni24   1.872       .  S
O18         Ni19   1.969       .  S
Ni19         O23   1.919       .  S
Ni19         O21   1.883       .  S
O20         Ni25   1.969       .  S
C22          O23   1.268       .  A
C22         C838   1.487       .  S
O27         Ni33   1.905       .  S
O27          C48   1.270       .  A
O28         Ni51   1.921       .  S
O28          C37   1.270       .  A
O29         Ni33   1.867       .  S
O29         Ni51   1.864       .  S
O29         Ni45   1.884       .  S
O29          H52   0.959       .  S
C30          O47   1.268       .  A
C30          O39   1.269       .  A
C30         C831   1.492       .  S
O31         Ni50   1.922       .  S
O31          C37   1.270       .  A
O32         Ni50   1.891       .  S
O32          C34   1.272       .  A
Ni33         O36   1.911       .  S
Ni33         O38   1.889       .  S
C34          O44   1.284       .  A
C34         C801   1.496       .  S
O35         Ni51   1.908       .  S
O35          C41   1.278       .  A
O36          C41   1.278       .  A
C37         C788   1.483       .  S
O38          C40   1.266       .  A
O39         Ni50   1.941       .  S
C40          O46   1.282       .  A
C40         C808   1.499       .  S
C41         C871   1.472       .  S
H42          O43   0.966       .  S
O43         Ni51   1.952       .  S
O43         Ni45   1.935       .  S
O43         Ni50   1.922       .  S
O44         Ni45   1.973       .  S
Ni45         O49   1.922       .  S
Ni45         O47   1.911       .  S
O46         Ni51   1.958       .  S
C48          O49   1.274       .  A
C48         C821   1.497       .  S
O53         Ni59   1.905       .  S
O53          C74   1.267       .  A
O54         Ni77   1.937       .  S
O54          C63   1.274       .  A
O55         Ni59   1.872   1_565  S
O55         Ni77   1.890       .  S
O55         Ni71   1.871       .  S
O55          H78   0.962   1_565  S
C56          O73   1.264       .  A
C56          O65   1.265       .  A
C56         C811   1.481       .  S
O57         Ni76   1.914       .  S
O57          C63   1.267       .  A
O58         Ni76   1.897       .  S
O58          C60   1.274       .  A
Ni59         O62   1.939   1_545  S
Ni59         O64   1.887   1_545  S
C60          O70   1.290       .  A
C60         C768   1.495       .  S
O61         Ni77   1.890       .  S
O61          C67   1.280       .  A
O62          C67   1.284       .  A
C63         C748   1.488       .  S
O64          C66   1.249       .  A
O65         Ni76   1.935       .  S
C66          O72   1.274       .  A
C66         C758   1.509       .  S
C67         C781   1.449       .  S
H68          O69   0.966       .  S
O69         Ni77   1.955       .  S
O69         Ni71   1.945       .  S
O69         Ni76   1.919       .  S
O70         Ni71   1.979       .  S
Ni71         O75   1.935   1_565  S
Ni71         O73   1.912       .  S
O72         Ni77   1.969       .  S
C74          O75   1.275       .  A
C74         C861   1.486       .  S
O79         Ni85   1.927       .  S
O79         C100   1.273       .  A
O80        Ni103   1.932       .  S
O80          C89   1.280       .  A
O81         Ni85   1.922       .  S
O81        Ni103   1.934   1_545  S
O81         Ni97   1.958       .  S
O81         H104   0.966       .  S
C82          O99   1.278   1_565  A
C82          O91   1.280       .  A
C82         C778   1.469       .  S
O83        Ni102   1.896       .  S
O83          C89   1.268       .  A
O84        Ni102   1.888       .  S
O84          C86   1.265   1_565  A
Ni85         O88   1.951       .  S
Ni85         O90   1.895       .  S
C86          O96   1.288       .  A
C86         C721   1.503       .  S
O87        Ni103   1.911       .  S
O87          C93   1.268   1_565  A
O88          C93   1.271       .  A
C89         C728   1.488       .  S
O90          C92   1.271       .  A
O91        Ni102   1.906       .  S
C92          O98   1.290   1_545  A
C92         C708   1.508   1_545  S
C93         C738   1.505   1_545  S
H94          O95   0.959       .  S
O95        Ni103   1.876       .  S
O95         Ni97   1.854   1_565  S
O95        Ni102   1.849       .  S
O96         Ni97   1.979       .  S
Ni97        O101   1.914       .  S
Ni97         O99   1.907       .  S
O98        Ni103   1.985       .  S
C100        O101   1.270       .  A
C100        C701   1.481       .  S
O105       Ni111   1.918       .  S
O105        C126   1.268       .  A
O106       Ni129   1.920   1_545  S
O106        C115   1.272       .  A
O107       Ni111   1.932       .  S
O107       Ni129   1.952       .  S
O107       Ni123   1.948       .  S
O107        H130   0.966       .  S
C108        O125   1.270       .  A
C108        O117   1.279       .  A
C108        C688   1.464       .  S
O109       Ni128   1.910       .  S
O109        C115   1.267       .  A
O110       Ni128   1.889   1_565  S
O110        C112   1.251       .  A
Ni111       O114   1.933       .  S
Ni111       O116   1.901       .  S
C112        O122   1.280       .  A
C112        C658   1.512       .  S
O113       Ni129   1.917       .  S
O113        C119   1.267       .  A
O114        C119   1.267       .  A
C115        C668   1.470       .  S
O116        C118   1.272       .  A
O117       Ni128   1.947   1_565  S
C118        O124   1.279       .  A
C118        C818   1.495   1_655  S
C119        C678   1.486       .  S
H120        O121   0.961   1_545  S
O121       Ni129   1.881       .  S
O121       Ni123   1.886       .  S
O121       Ni128   1.882   1_565  S
O122       Ni123   1.985       .  S
Ni123       O127   1.918       .  S
Ni123       O125   1.873       .  S
O124       Ni129   1.957       .  S
C126        O127   1.267       .  A
C126        C648   1.482       .  S
O131       Ni137   1.896       .  S
O131        C152   1.262       .  A
O132       Ni155   1.924       .  S
O132        C141   1.268       .  A
O133       Ni137   1.872       .  S
O133       Ni155   1.888   1_565  S
O133       Ni149   1.873       .  S
O133        H156   0.967       .  S
C134        O151   1.268   1_545  A
C134        O143   1.268       .  A
C134        C641   1.491   1_545  S
O135       Ni154   1.932       .  S
O135        C141   1.272       .  A
O136       Ni154   1.897       .  S
O136        C138   1.273   1_545  A
Ni137       O140   1.948       .  S
Ni137       O142   1.884   1_565  S
C138        O148   1.288       .  A
C138        C618   1.513   1_455  S
O139       Ni155   1.869       .  S
O139        C145   1.275   1_545  A
O140        C145   1.284       .  A
C141        C611   1.494       .  S
O142        C144   1.243       .  A
O143       Ni154   1.939       .  S
C144        O150   1.273       .  A
C144        C828   1.511       .  S
C145        C691   1.456   1_556  S
H146        O147   0.966       .  S
O147       Ni155   1.954       .  S
O147       Ni149   1.955   1_545  S
O147       Ni154   1.923       .  S
O148       Ni149   1.971       .  S
Ni149       O153   1.950       .  S
Ni149       O151   1.919       .  S
O150       Ni155   1.981       .  S
C152        O153   1.280       .  A
C152        C631   1.485       .  S
O157       Ni163   1.919       .  S
O157        C178   1.271       .  A
O158       Ni181   1.921       .  S
O158        C167   1.271       .  A
O159       Ni163   1.938       .  S
O159       Ni181   1.928       .  S
O159       Ni175   1.944       .  S
O159        H182   0.966       .  S
C160        O177   1.270       .  A
C160        O169   1.275       .  A
C160        C598   1.456       .  S
O161       Ni180   1.902       .  S
O161        C167   1.263       .  A
O162       Ni180   1.878       .  S
O162        C164   1.257       .  A
Ni163       O166   1.957       .  S
Ni163       O168   1.904       .  S
C164        O174   1.281       .  A
C164        C681   1.503       .  S
O165       Ni181   1.915       .  S
O165        C171   1.266       .  A
O166        C171   1.271       .  A
C167        C771   1.497       .  S
O168        C170   1.270       .  A
O169       Ni180   1.924       .  S
C170        O176   1.282       .  A
C170        C591   1.488       .  S
C171        C718   1.522       .  S
H172        O173   0.966       .  S
O173       Ni181   1.884       .  S
O173       Ni175   1.894       .  S
O173       Ni180   1.890       .  S
O174       Ni175   1.970       .  S
Ni175       O179   1.924       .  S
Ni175       O177   1.889       .  S
O176       Ni181   1.962       .  S
C178        O179   1.273       .  A
C178        C841   1.486       .  S
O183       Ni189   1.907       .  S
O183        C204   1.265       .  A
O184       Ni207   1.926       .  S
O184        C193   1.272       .  A
O185       Ni189   1.897       .  S
O185       Ni207   1.902       .  S
O185       Ni201   1.880       .  S
O185        H208   0.966       .  S
C186        O203   1.261       .  A
C186        O195   1.271       .  A
C186        C578   1.518       .  S
O187       Ni206   1.924       .  S
O187        C193   1.271       .  A
O188       Ni206   1.908       .  S
O188        C190   1.271       .  A
Ni189       O192   1.928       .  S
Ni189       O194   1.881       .  S
C190        O200   1.280       .  A
C190        C671   1.481       .  S
O191       Ni207   1.885       .  S
O191        C197   1.272       .  A
O192        C197   1.276       .  A
C193        C791   1.485       .  S
O194        C196   1.255       .  A
O195       Ni206   1.960       .  S
C196        O202   1.275       .  A
C196        C558   1.500       .  S
C197        C601   1.455       .  S
H198        O199   0.966       .  S
O199       Ni207   1.938       .  S
O199       Ni201   1.926       .  S
O199       Ni206   1.936       .  S
O200       Ni201   1.955       .  S
Ni201       O205   1.926       .  S
Ni201       O203   1.894       .  S
O202       Ni207   1.956       .  S
C204        O205   1.270       .  A
C204        C568   1.482       .  S
O209       Ni215   1.908       .  S
O209        C230   1.267       .  A
O210       Ni233   1.913       .  S
O210        C219   1.267       .  A
O211       Ni215   1.887       .  S
O211       Ni233   1.904       .  S
O211       Ni227   1.882       .  S
O211        H234   0.959       .  S
C212        O229   1.264       .  A
C212        O221   1.272       .  A
C212        C548   1.516       .  S
O213       Ni232   1.935       .  S
O213        C219   1.273       .  A
O214       Ni232   1.901       .  S
O214        C216   1.270       .  A
Ni215       O218   1.930       .  S
Ni215       O220   1.880       .  S
C216        O226   1.281       .  A
C216        C731   1.503       .  S
O217       Ni233   1.869       .  S
O217        C223   1.266       .  A
O218        C223   1.277       .  A
C219        C508   1.487       .  S
O220        C222   1.249       .  A
O221       Ni232   1.959       .  S
C222        O228   1.277       .  A
C222        C518   1.512       .  S
C223        C528   1.449       .  S
H224        O225   0.966       .  S
O225       Ni233   1.933       .  S
O225       Ni227   1.936       .  S
O225       Ni232   1.934       .  S
O226       Ni227   1.967       .  S
Ni227       O231   1.935       .  S
Ni227       O229   1.905       .  S
O228       Ni233   1.974       .  S
C230        O231   1.273       .  A
C230        C541   1.495       .  S
O235       Ni241   1.928       .  S
O235        C256   1.272       .  A
O236       Ni259   1.939       .  S
O236        C245   1.275       .  A
O237       Ni241   1.932       .  S
O237       Ni259   1.945       .  S
O237       Ni253   1.956       .  S
O237        H260   0.966       .  S
C238        O255   1.275       .  A
C238        O247   1.281       .  A
C238        C531   1.444       .  S
O239       Ni258   1.896       .  S
O239        C245   1.262       .  A
O240       Ni258   1.884       .  S
O240        C242   1.250       .  A
Ni241       O244   1.947       .  S
Ni241       O246   1.902       .  S
C242        O252   1.281       .  A
C242        C741   1.513       .  S
O243       Ni259   1.907       .  S
O243        C249   1.266       .  A
O244        C249   1.270       .  A
C245        C621   1.479       .  S
O246        C248   1.272       .  A
O247       Ni258   1.929       .  S
C248        O254   1.285       .  A
C248        C501   1.510       .  S
C249        C661   1.497   1_556  S
H250        O251   0.966       .  S
O251       Ni259   1.874       .  S
O251       Ni253   1.890       .  S
O251       Ni258   1.870       .  S
O252       Ni253   1.986       .  S
Ni253       O257   1.927       .  S
Ni253       O255   1.885       .  S
O254       Ni259   1.964       .  S
C256        O257   1.271       .  A
C256        C488   1.492       .  S
O261       Ni267   1.895       .  S
O261        C282   1.266       .  A
O262       Ni285   1.919       .  S
O262        C271   1.270       .  A
O263       Ni267   1.855       .  S
O263       Ni285   1.866       .  S
O263       Ni279   1.883       .  S
O263        H286   0.962       .  S
C264        O281   1.269       .  A
C264        O273   1.270       .  A
C264        C561   1.485       .  S
O265       Ni284   1.926       .  S
O265        C271   1.271       .  A
O266       Ni284   1.901       .  S
O266        C268   1.271       .  A
Ni267       O270   1.909       .  S
Ni267       O272   1.891       .  S
C268        O278   1.280       .  A
C268        C881   1.504       .  S
O269       Ni285   1.895       .  S
O269        C275   1.274       .  A
O270        C275   1.279       .  A
C271        C751   1.488       .  S
O272        C274   1.266       .  A
O273       Ni284   1.939       .  S
C274        O280   1.286       .  A
C274        C551   1.497       .  S
C275        C478   1.454       .  S
H276        O277   0.966       .  S
O277       Ni285   1.953       .  S
O277       Ni279   1.943       .  S
O277       Ni284   1.925       .  S
O278       Ni279   1.962       .  S
Ni279       O283   1.934       .  S
Ni279       O281   1.916       .  S
O280       Ni285   1.966       .  S
C282        O283   1.277       .  A
C282        C588   1.475       .  S
O287       Ni293   1.921       .  S
O287        C308   1.270       .  A
O288       Ni311   1.937       .  S
O288        C297   1.272       .  A
O289       Ni293   1.921       .  S
O289       Ni311   1.943       .  S
O289       Ni305   1.956       .  S
O289        H312   0.966       .  S
C290        O307   1.278       .  A
C290        O299   1.282       .  A
C290        C481   1.442       .  S
O291       Ni310   1.890       .  S
O291        C297   1.258       .  A
O292       Ni310   1.884       .  S
O292        C294   1.247       .  A
Ni293       O296   1.946       .  S
Ni293       O298   1.896       .  S
C294        O304   1.274       .  A
C294        C888   1.503       .  S
O295       Ni311   1.900       .  S
O295        C301   1.263       .  A
O296        C301   1.269       .  A
C297        C458   1.498       .  S
O298        C300   1.272       .  A
O299       Ni310   1.933       .  S
C300        O306   1.286       .  A
C300        C538   1.503       .  S
C301        C468   1.492       .  S
H302        O303   0.962       .  S
O303       Ni311   1.876       .  S
O303       Ni305   1.884       .  S
O303       Ni310   1.865       .  S
O304       Ni305   1.971       .  S
Ni305       O309   1.922       .  S
Ni305       O307   1.890       .  S
O306       Ni311   1.973       .  S
C308        O309   1.270       .  A
C308        C698   1.483       .  S
O313       Ni319   1.897       .  S
O313        C334   1.268       .  A
O314       Ni337   1.932       .  S
O314        C323   1.273       .  A
O315       Ni319   1.863       .  S
O315       Ni337   1.868       .  S
O315       Ni331   1.885       .  S
O315        H338   0.957       .  S
C316        O333   1.270       .  A
C316        O325   1.268       .  A
C316        C761   1.486       .  S
O317       Ni336   1.914       .  S
O317        C323   1.268       .  A
O318       Ni336   1.893       .  S
O318        C320   1.270       .  A
Ni319       O322   1.899       .  S
Ni319       O324   1.893       .  S
C320        O330   1.285       .  A
C320        C461   1.495       .  S
O321       Ni337   1.907       .  S
O321        C327   1.278       .  A
O322        C327   1.278       .  A
C323        C511   1.488       .  S
O324        C326   1.268       .  A
O325       Ni336   1.931       .  S
C326        O332   1.284       .  A
C326        C638   1.491       .  S
C327        C448   1.443       .  S
H328        O329   0.966       .  S
O329       Ni337   1.951       .  S
O329       Ni331   1.943       .  S
O329       Ni336   1.917       .  S
O330       Ni331   1.980       .  S
Ni331       O335   1.936       .  S
Ni331       O333   1.917       .  S
O332       Ni337   1.955       .  S
C334        O335   1.277       .  A
C334        C711   1.500       .  S
O339       Ni345   1.937       .  S
O339        C360   1.272       .  A
O340       Ni363   1.949       .  S
O340        C349   1.275       .  A
O341       Ni345   1.941       .  S
O341       Ni363   1.958       .  S
O341       Ni357   1.949       .  S
O341        H364   0.966       .  S
C342        O359   1.273       .  A
C342        O351   1.281       .  A
C342        C451   1.451       .  S
O343       Ni362   1.892       .  S
O343        C349   1.259       .  A
O344       Ni362   1.884       .  S
O344        C346   1.245       .  A
Ni345       O348   1.947       .  S
Ni345       O350   1.900       .  S
C346        O356   1.274       .  A
C346        C471   1.510       .  S
O347       Ni363   1.892       .  S
O347        C353   1.265       .  A
O348        C353   1.271       .  A
C349        C431   1.487       .  S
O350        C352   1.270       .  A
O351       Ni362   1.927       .  S
C352        O358   1.280       .  A
C352        C628   1.504       .  S
C353        C438   1.498       .  S
H354        O355   0.967       .  S
O355       Ni363   1.873       .  S
O355       Ni357   1.902       .  S
O355       Ni362   1.881       .  S
O356       Ni357   1.976       .  S
Ni357       O361   1.921       .  S
Ni357       O359   1.875       .  S
O358       Ni363   1.952       .  S
C360        O361   1.268       .  A
C360        C491   1.493       .  S
O365       Ni371   1.885       .  S
O365        C386   1.256       .  A
O366       Ni389   1.926       .  S
O366        C375   1.271       .  A
O367       Ni371   1.853       .  S
O367       Ni389   1.878       .  S
O367       Ni383   1.877       .  S
O367        H390   0.965       .  S
C368        O385   1.268       .  A
C368        O377   1.269       .  A
C368        C521   1.483       .  S
O369       Ni388   1.927       .  S
O369        C375   1.271       .  A
O370       Ni388   1.894       .  S
O370        C372   1.270       .  A
Ni371       O374   1.910       .  S
Ni371       O376   1.876       .  S
C372        O382   1.285       .  A
C372        C428   1.508   1_655  S
O373       Ni389   1.887       .  S
O373        C379   1.273       .  A
O374        C379   1.279       .  A
C375        C608   1.490       .  S
O376        C378   1.256       .  A
O377       Ni388   1.939       .  S
C378        O384   1.286       .  A
C378        C581   1.505       .  S
C379        C418   1.435       .  S
H380        O381   0.966       .  S
O381       Ni389   1.953       .  S
O381       Ni383   1.949       .  S
O381       Ni388   1.926       .  S
O382       Ni383   1.973       .  S
Ni383       O387   1.955       .  S
Ni383       O385   1.910       .  S
O384       Ni389   1.975       .  S
C386        O387   1.279       .  A
C386        C498   1.479       .  S
O391       Ni397   1.924       .  S
O391        C412   1.272       .  A
O392       Ni415   1.952       .  S
O392        C401   1.276       .  A
O393       Ni397   1.923       .  S
O393       Ni415   1.942       .  S
O393       Ni409   1.953       .  S
O393        H416   0.966       .  S
C394        O411   1.274       .  A
C394        O403   1.279       .  A
C394        C421   1.433       .  S
O395       Ni414   1.880       .  S
O395        C401   1.256       .  A
O396       Ni414   1.874       .  S
O396        C398   1.254       .  A
Ni397       O400   1.945       .  S
Ni397       O402   1.890       .  S
C398        O408   1.283       .  A
C398        C441   1.506       .  S
O399       Ni415   1.897       .  S
O399        C405   1.263       .  A
O400        C405   1.270       .  A
C401        C798   1.492       .  S
O402        C404   1.268       .  A
O403       Ni414   1.911       .  S
C404        O410   1.288       .  A
C404        C571   1.512   1_455  S
C405        C848   1.485       .  S
H406        O407   0.965       .  S
O407       Ni415   1.876       .  S
O407       Ni409   1.874       .  S
O407       Ni414   1.849       .  S
O408       Ni409   1.975       .  S
Ni409       O413   1.915       .  S
Ni409       O411   1.886       .  S
O410       Ni415   1.978       .  S
C412        O413   1.269       .  A
C412        C651   1.484       .  S
C417        C418   1.406   1_554  A
C417        C422   1.392       .  A
C417       Br424   1.930       .  S
C418        C419   1.404       .  A
C419        C420   1.392   1_656  A
C419       Br426   1.935   1_655  S
C420        C421   1.405       .  A
C420       Br425   1.931       .  S
C421        C422   1.403   1_455  A
C422       Br423   1.934       .  S
C427        C428   1.421       .  A
C427        C432   1.418       .  A
C427       Br434   1.927   1_455  S
C428        C429   1.419       .  A
C429        C430   1.403       .  A
C429       Br436   1.939       .  S
C430        C431   1.410       .  A
C430       Br435   1.937       .  S
C431        C432   1.412       .  A
C432       Br433   1.926       .  S
C437        C438   1.407   1_554  A
C437        C442   1.404       .  A
C437       Br444   1.942   1_554  S
C438        C439   1.422   1_556  A
C439        C440   1.422       .  A
C439       Br446   1.930       .  S
C440        C441   1.413       .  A
C440       Br445   1.928       .  S
C441        C442   1.430       .  A
C442       Br443   1.941       .  S
C447        C448   1.407       .  A
C447        C452   1.396       .  A
C447       Br454   1.929       .  S
C448        C449   1.401       .  A
C449        C450   1.393       .  A
C449       Br456   1.934       .  S
C450        C451   1.415       .  A
C450       Br455   1.937       .  S
C451        C452   1.407       .  A
C452       Br453   1.934       .  S
C457        C458   1.417       .  A
C457        C462   1.418       .  A
C457       Br464   1.934       .  S
C458        C459   1.422       .  A
C459        C460   1.399       .  A
C459       Br466   1.942       .  S
C460        C461   1.410       .  A
C460       Br465   1.942       .  S
C461        C462   1.419       .  A
C462       Br463   1.920       .  S
C467        C468   1.407       .  A
C467        C472   1.410       .  A
C467       Br474   1.939       .  S
C468        C469   1.415       .  A
C469        C470   1.417       .  A
C469       Br476   1.932       .  S
C470        C471   1.416       .  A
C470       Br475   1.925       .  S
C471        C472   1.432       .  A
C472       Br473   1.942       .  S
C477        C478   1.411       .  A
C477        C482   1.396       .  A
C477       Br484   1.933       .  S
C478        C479   1.412       .  A
C479        C480   1.396       .  A
C479       Br486   1.936       .  S
C480        C481   1.404       .  A
C480       Br485   1.933       .  S
C481        C482   1.401       .  A
C482       Br483   1.930       .  S
C487        C488   1.408       .  A
C487        C492   1.412       .  A
C487       Br494   1.926       .  S
C488        C489   1.414       .  A
C489        C490   1.416       .  A
C489       Br496   1.926       .  S
C490        C491   1.409       .  A
C490       Br495   1.921       .  S
C491        C492   1.411       .  A
C492       Br493   1.921       .  S
C497        C498   1.411       .  A
C497        C502   1.415       .  A
C497       Br504   1.927       .  S
C498        C499   1.407       .  A
C499        C500   1.409       .  A
C499       Br506   1.934       .  S
C500        C501   1.424       .  A
C500       Br505   1.935       .  S
C501        C502   1.421       .  A
C502       Br503   1.932       .  S
C507        C508   1.415       .  A
C507        C512   1.415       .  A
C507       Br514   1.930       .  S
C508        C509   1.406       .  A
C509        C510   1.412   1_655  A
C509       Br516   1.928   1_655  S
C510        C511   1.415       .  A
C510       Br515   1.930       .  S
C511        C512   1.408   1_455  A
C512       Br513   1.927       .  S
C517        C518   1.433       .  A
C517        C522   1.409       .  A
C517       Br524   1.935       .  S
C518        C519   1.420       .  A
C519        C520   1.416       .  A
C519       Br526   1.933       .  S
C520        C521   1.412       .  A
C520       Br525   1.930       .  S
C521        C522   1.399       .  A
C522       Br523   1.936       .  S
C527        C528   1.403       .  A
C527        C532   1.396       .  A
C527       Br534   1.932       .  S
C528        C529   1.413       .  A
C529        C530   1.393       .  A
C529       Br536   1.925       .  S
C530        C531   1.397       .  A
C530       Br535   1.931       .  S
C531        C532   1.408       .  A
C532       Br533   1.921       .  S
C537        C538   1.422       .  A
C537        C542   1.417       .  A
C537       Br544   1.927       .  S
C538        C539   1.419       .  A
C539        C540   1.402       .  A
C539       Br546   1.940       .  S
C540        C541   1.410       .  A
C540       Br545   1.934       .  S
C541        C542   1.411       .  A
C542       Br543   1.925       .  S
C547        C548   1.432       .  A
C547        C552   1.425       .  A
C547       Br554   1.932       .  S
C548        C549   1.421       .  A
C549        C550   1.403       .  A
C549       Br556   1.938       .  S
C550        C551   1.416       .  A
C550       Br555   1.936       .  S
C551        C552   1.408       .  A
C552       Br553   1.928       .  S
C557        C558   1.421       .  A
C557        C562   1.413       .  A
C557       Br564   1.932       .  S
C558        C559   1.414       .  A
C559        C560   1.410       .  A
C559       Br566   1.933       .  S
C560        C561   1.412       .  A
C560       Br565   1.923       .  S
C561        C562   1.407       .  A
C562       Br563   1.930       .  S
C567        C568   1.408       .  A
C567        C572   1.416       .  A
C567       Br574   1.936       .  S
C568        C569   1.406       .  A
C569        C570   1.405       .  A
C569       Br576   1.938       .  S
C570        C571   1.429       .  A
C570       Br575   1.942       .  S
C571        C572   1.425       .  A
C572       Br573   1.923   1_655  S
C577        C578   1.422       .  A
C577        C582   1.404       .  A
C577       Br584   1.951       .  S
C578        C579   1.433       .  A
C579        C580   1.425   1_554  A
C579       Br586   1.932       .  S
C580        C581   1.409       .  A
C580       Br585   1.929       .  S
C581        C582   1.426   1_556  A
C582       Br583   1.944       .  S
C587        C588   1.401       .  A
C587        C592   1.408       .  A
C587       Br594   1.933       .  S
C588        C589   1.414       .  A
C589        C590   1.409       .  A
C589       Br596   1.931       .  S
C590        C591   1.410       .  A
C590       Br595   1.933       .  S
C591        C592   1.419       .  A
C592       Br593   1.917       .  S
C597        C598   1.415       .  A
C597        C602   1.398       .  A
C597       Br604   1.937       .  S
C598        C599   1.404       .  A
C599        C600   1.399       .  A
C599       Br606   1.928       .  S
C600        C601   1.415       .  A
C600       Br605   1.937       .  S
C601        C602   1.403       .  A
C602       Br603   1.929       .  S
C607        C608   1.411   1_455  A
C607        C612   1.412       .  A
C607       Br614   1.924       .  S
C608        C609   1.407       .  A
C609        C610   1.416       .  A
C609       Br616   1.925       .  S
C610        C611   1.417   1_655  A
C610       Br615   1.925       .  S
C611        C612   1.408       .  A
C612       Br613   1.927       .  S
C617        C618   1.424       .  A
C617        C622   1.415       .  A
C617       Br624   1.919   1_655  S
C618        C619   1.425   1_565  A
C619        C620   1.405   1_545  A
C619       Br626   1.940       .  S
C620        C621   1.406       .  A
C620       Br625   1.937   1_565  S
C621        C622   1.407       .  A
C622       Br623   1.930       .  S
C627        C628   1.416       .  A
C627        C632   1.415       .  A
C627       Br634   1.931       .  S
C628        C629   1.415       .  A
C629        C630   1.405       .  A
C629       Br636   1.935       .  S
C630        C631   1.412       .  A
C630       Br635   1.934       .  S
C631        C632   1.413       .  A
C632       Br633   1.921       .  S
C637        C638   1.415   1_545  A
C637        C642   1.415       .  A
C637       Br644   1.928       .  S
C638        C639   1.414       .  A
C639        C640   1.412       .  A
C639       Br646   1.930       .  S
C640        C641   1.410       .  A
C640       Br645   1.922       .  S
C641        C642   1.411   1_565  A
C642       Br643   1.928       .  S
C647        C648   1.413   1_455  A
C647        C652   1.409       .  A
C647       Br654   1.929       .  S
C648        C649   1.406       .  A
C649        C650   1.413       .  A
C649       Br656   1.925       .  S
C650        C651   1.416   1_655  A
C650       Br655   1.930       .  S
C651        C652   1.406       .  A
C652       Br653   1.928       .  S
C657        C658   1.415       .  A
C657        C662   1.419       .  A
C657       Br664   1.929       .  S
C658        C659   1.433       .  A
C659        C660   1.412       .  A
C659       Br666   1.940   1_565  S
C660        C661   1.406       .  A
C660       Br665   1.938   1_554  S
C661        C662   1.418       .  A
C662       Br663   1.931       .  S
C667        C668   1.399       .  A
C667        C672   1.405       .  A
C667       Br674   1.933       .  S
C668        C669   1.411       .  A
C669        C670   1.407       .  A
C669       Br676   1.921       .  S
C670        C671   1.407       .  A
C670       Br675   1.932       .  S
C671        C672   1.414       .  A
C672       Br673   1.903       .  S
C677        C678   1.407       .  A
C677        C682   1.413       .  A
C677       Br684   1.930       .  S
C678        C679   1.410   1_565  A
C679        C680   1.413       .  A
C679       Br686   1.930       .  S
C680        C681   1.417       .  A
C680       Br685   1.923       .  S
C681        C682   1.421   1_545  A
C682       Br683   1.932       .  S
C687        C688   1.413   1_545  A
C687        C692   1.395   1_655  A
C687       Br694   1.929       .  S
C688        C689   1.413       .  A
C689        C690   1.400   1_655  A
C689       Br696   1.938       .  S
C690        C691   1.411       .  A
C690       Br695   1.936       .  S
C691        C692   1.406   1_565  A
C692       Br693   1.939       .  S
C697        C698   1.413       .  A
C697        C702   1.411       .  A
C697       Br704   1.929       .  S
C698        C699   1.407       .  A
C699        C700   1.411       .  A
C699       Br706   1.925       .  S
C700        C701   1.414       .  A
C700       Br705   1.932       .  S
C701        C702   1.407       .  A
C702       Br703   1.928       .  S
C707        C708   1.421   1_545  A
C707        C712   1.409   1_545  A
C707       Br714   1.940       .  S
C708        C709   1.419       .  A
C709        C710   1.416       .  A
C709       Br716   1.925       .  S
C710        C711   1.416       .  A
C710       Br715   1.929       .  S
C711        C712   1.415       .  A
C712       Br713   1.938   1_565  S
C717        C718   1.422       .  A
C717        C722   1.408       .  A
C717       Br724   1.940       .  S
C718        C719   1.433       .  A
C719        C720   1.426       .  A
C719       Br726   1.932       .  S
C720        C721   1.407       .  A
C720       Br725   1.928       .  S
C721        C722   1.416       .  A
C722       Br723   1.930   1_545  S
C727        C728   1.413       .  A
C727        C732   1.406       .  A
C727       Br734   1.938       .  S
C728        C729   1.408       .  A
C729        C730   1.413       .  A
C729       Br736   1.931       .  S
C730        C731   1.424       .  A
C730       Br735   1.923       .  S
C731        C732   1.419       .  A
C732       Br733   1.939       .  S
C737        C738   1.422       .  A
C737        C742   1.421       .  A
C737       Br744   1.932       .  S
C738        C739   1.409       .  A
C739        C740   1.414       .  A
C739       Br746   1.938   1_565  S
C740        C741   1.431       .  A
C740       Br745   1.940       .  S
C741        C742   1.413       .  A
C742       Br743   1.930       .  S
C747        C748   1.415       .  A
C747        C752   1.413       .  A
C747       Br754   1.930       .  S
C748        C749   1.408       .  A
C749        C750   1.414       .  A
C749       Br756   1.924       .  S
C750        C751   1.415       .  A
C750       Br755   1.931       .  S
C751        C752   1.408       .  A
C752       Br753   1.928       .  S
C757        C758   1.415       .  A
C757        C762   1.412       .  A
C757       Br764   1.928       .  S
C758        C759   1.433       .  A
C759        C760   1.413       .  A
C759       Br766   1.939   1_565  S
C760        C761   1.403       .  A
C760       Br765   1.936       .  S
C761        C762   1.412       .  A
C762       Br763   1.932       .  S
C767        C768   1.412       .  A
C767        C772   1.405       .  A
C767       Br774   1.940       .  S
C768        C769   1.414   1_565  A
C769        C770   1.412       .  A
C769       Br776   1.912       .  S
C770        C771   1.418       .  A
C770       Br775   1.938       .  S
C771        C772   1.423   1_545  A
C772       Br773   1.940       .  S
C777        C778   1.418       .  A
C777        C782   1.396       .  A
C777       Br784   1.935       .  S
C778        C779   1.417   1_565  A
C779        C780   1.400       .  A
C779       Br786   1.938       .  S
C780        C781   1.406   1_545  A
C780       Br785   1.936       .  S
C781        C782   1.400       .  A
C782       Br783   1.931       .  S
C787        C788   1.412       .  A
C787        C792   1.410       .  A
C787       Br794   1.927       .  S
C788        C789   1.406       .  A
C789        C790   1.412       .  A
C789       Br796   1.927       .  S
C790        C791   1.413       .  A
C790       Br795   1.919       .  S
C791        C792   1.407       .  A
C792       Br793   1.929       .  S
C797        C798   1.416       .  A
C797        C802   1.397       .  A
C797       Br804   1.940       .  S
C798        C799   1.410       .  A
C799        C800   1.418       .  A
C799       Br806   1.924       .  S
C800        C801   1.421       .  A
C800       Br805   1.924       .  S
C801        C802   1.411       .  A
C802       Br803   1.940       .  S
C807        C808   1.416       .  A
C807        C812   1.412       .  A
C807       Br814   1.919       .  S
C808        C809   1.417   1_545  A
C809        C810   1.412       .  A
C809       Br816   1.929       .  S
C810        C811   1.406       .  A
C810       Br815   1.928       .  S
C811        C812   1.408   1_565  A
C812       Br813   1.931       .  S
C817        C818   1.414       .  A
C817        C822   1.405       .  A
C817       Br824   1.940       .  S
C818        C819   1.418   1_565  A
C819        C820   1.412       .  A
C819       Br826   1.931   1_455  S
C820        C821   1.418       .  A
C820       Br825   1.935       .  S
C821        C822   1.418   1_545  A
C822       Br823   1.937       .  S
C827        C828   1.416       .  A
C827        C832   1.417   1_556  A
C827       Br834   1.931       .  S
C828        C829   1.435   1_556  A
C829        C830   1.411       .  A
C829       Br836   1.941   1_544  S
C830        C831   1.404       .  A
C830       Br835   1.938   1_545  S
C831        C832   1.416       .  A
C832       Br833   1.932       .  S
C837        C838   1.417       .  A
C837        C842   1.415   1_455  A
C837       Br844   1.930       .  S
C838        C839   1.408   1_455  A
C839        C840   1.406       .  A
C839       Br846   1.934       .  S
C840        C841   1.415       .  A
C840       Br845   1.931       .  S
C841        C842   1.409       .  A
C842       Br843   1.926       .  S
C847        C848   1.404       .  A
C847        C852   1.408       .  A
C847       Br854   1.939       .  S
C848        C849   1.414       .  A
C849        C850   1.415       .  A
C849       Br856   1.931       .  S
C850        C851   1.415       .  A
C850       Br855   1.932       .  S
C851        C852   1.431       .  A
C852       Br853   1.940       .  S
C857        C858   1.430       .  A
C857        C862   1.408       .  A
C857       Br864   1.940       .  S
C858        C859   1.419       .  A
C859        C860   1.413       .  A
C859       Br866   1.930       .  S
C860        C861   1.409       .  A
C860       Br865   1.923       .  S
C861        C862   1.406       .  A
C862       Br863   1.938       .  S
C867        C868   1.406       .  A
C867        C872   1.398       .  A
C867       Br874   1.939       .  S
C868        C869   1.399       .  A
C869        C870   1.399       .  A
C869       Br876   1.936       .  S
C870        C871   1.422       .  A
C870       Br875   1.936       .  S
C871        C872   1.416       .  A
C872       Br873   1.929       .  S
C877        C878   1.407       .  A
C877        C882   1.414       .  A
C877       Br884   1.927       .  S
C878        C879   1.410       .  A
C879        C880   1.403       .  A
C879       Br886   1.938       .  S
C880        C881   1.422       .  A
C880       Br885   1.941       .  S
C881        C882   1.428       .  A
C882       Br883   1.934       .  S
C887        C888   1.431       .  A
C887        C892   1.409       .  A
C887       Br894   1.939       .  S
C888        C889   1.413       .  A
C889        C890   1.415       .  A
C889       Br896   1.927       .  S
C890        C891   1.415       .  A
C890       Br895   1.932       .  S
C891        C892   1.405       .  A
C892       Br893   1.939       .  S
