geometry optimzed in LAMMPS
_audit_creation_date              2020-12-01 
_audit_creation_method            'lammps2cif' 
_symmetry_space_group_name_H-M    'P1' 
_symmetry_Int_Tables_number       1 
_symmetry_cell_setting            triclinic 
loop_ 
_symmetry_equiv_pos_as_xyz 
  x,y,z 
_cell_length_a                    27.89298408 
_cell_length_b                    27.89534954285202 
_cell_length_c                    27.57168043080265 
_cell_angle_alpha                 89.88779802146523 
_cell_angle_beta                  89.87765042960345 
_cell_angle_gamma                 119.86463700725132 
loop_ 
_atom_site_label 
_atom_site_type_symbol 
_atom_site_fract_x 
_atom_site_fract_y 
_atom_site_fract_z 
_atom_site_charge 
O1          O  0.88224128  0.20087403  0.15895925    -0.85300
O2          O  0.93026137  0.29440668  0.21785996    -0.82400
C3          C  0.93335722  0.32963466  0.24823784     0.98100
O4          O  0.89099566  0.33306307  0.25828254    -0.82400
O5          O  0.83436118  0.34032428  0.17823194    -0.85100
C6          C  0.80498883  0.32663764  0.14055458     1.02700
O7          O  0.77427364  0.27580820  0.13023530    -0.77800
O8          O  0.84478700  0.23470877  0.11048974    -0.78000
C9          C  0.88282091  0.22364834  0.11931205     1.02600
O10         O  0.80707090  0.14288708  0.23552975    -0.85300
O11         O  0.85987582  0.23140336  0.29401475    -0.82400
C12         C  0.82416683  0.23638498  0.31782001     0.98200
O13         O  0.79134051  0.24854209  0.29698073    -0.82400
O14         O  0.73253365  0.26103732  0.22266034    -0.85000
C15         C  0.69603843  0.21100189  0.21694926     1.02600
O16         O  0.70674339  0.17949718  0.19178433    -0.77800
O17         O  0.76915862  0.13180400  0.16390048    -0.78000
C18         C  0.77628732  0.11154176  0.20278819     1.02600
Cr19       Cr  0.86605679  0.21897868  0.22445379     1.93700
Cr20       Cr  0.81280426  0.29183580  0.23591415     1.93200
Cr21       Cr  0.77684971  0.20769016  0.15259490     1.39100
O22         O  0.81856870  0.23954813  0.20436175    -1.23100
O23         O  0.67877889  0.79315048  0.83977525    -0.85300
O24         O  0.62698545  0.71090166  0.77200425    -0.82400
C25         C  0.59572142  0.68327312  0.73780703     0.98100
O26         O  0.55286859  0.68566822  0.72980224    -0.82400
O27         O  0.49681391  0.67279148  0.81628113    -0.85100
C28         C  0.48321570  0.68413470  0.85645115     1.02700
O29         O  0.50160016  0.73435462  0.86906760    -0.77800
O30         O  0.61127861  0.77823014  0.89010269    -0.78000
C31         C  0.65649519  0.77962874  0.88120256     1.02600
O32         O  0.67554995  0.86885312  0.77186593    -0.85300
O33         O  0.62872099  0.79008889  0.70450050    -0.82400
C34         C  0.58784424  0.79011345  0.68480922     0.98200
O35         O  0.54426390  0.77744818  0.70822746    -0.82400
O36         O  0.47120461  0.75332278  0.78440080    -0.85000
C37         C  0.48526134  0.80341142  0.78794350     1.02600
O38         O  0.52936343  0.83517875  0.81023144    -0.77800
O39         O  0.63857777  0.88102820  0.83766859    -0.78000
C40         C  0.67211564  0.90041652  0.80220323     1.02600
Cr41       Cr  0.64719088  0.78953404  0.77434633     1.93700
Cr42       Cr  0.52105305  0.72597684  0.76288854     1.93200
Cr43       Cr  0.57102879  0.80509200  0.84801193     1.39100
O44         O  0.58055025  0.77388067  0.79548083    -1.23100
O45         O  0.80741138  0.69713621  0.48802989    -0.85300
O46         O  0.71306129  0.65779379  0.54354762    -0.82400
C47         C  0.67465983  0.62646828  0.57186533     0.98100
O48         O  0.66789933  0.57968982  0.58299666    -0.82400
O49         O  0.66436340  0.51485573  0.50605024    -0.85100
C50         C  0.67961639  0.49579289  0.47174193     1.02700
O51         O  0.73050645  0.51358363  0.46446582    -0.77800
O52         O  0.77144805  0.62412234  0.44225922    -0.78000
C53         C  0.78100486  0.67281928  0.45021989     1.02600
O54         O  0.86041535  0.67798518  0.56904768    -0.85300
O55         O  0.76850588  0.64762297  0.62529152    -0.82400
C56         C  0.75581182  0.60483217  0.65012994     0.98200
O57         O  0.74567854  0.56044428  0.62942182    -0.82400
O58         O  0.73698141  0.48876930  0.55737607    -0.85000
C59         C  0.78510970  0.49657707  0.55007932     1.02600
O60         O  0.82125354  0.54008207  0.52864544    -0.77800
O61         O  0.87328367  0.65100992  0.49808373    -0.78000
C62         C  0.89262244  0.67758725  0.53726483     1.02600
Cr63       Cr  0.78616239  0.66507337  0.55478840     1.93700
Cr64       Cr  0.70800829  0.54017402  0.56606086     1.93200
Cr65       Cr  0.79724966  0.58387981  0.48672894     1.39100
O66         O  0.76408211  0.59627148  0.53638659    -1.23100
O67         O  0.10411701  0.80172650  0.66396681    -0.85300
O68         O  0.06239212  0.70590507  0.72131936    -0.82400
C69         C  0.06133848  0.66961645  0.74983549     0.98100
O70         O  0.10587326  0.67292925  0.76340874    -0.82400
O71         O  0.16348964  0.67187026  0.68399126    -0.85100
C72         C  0.19180853  0.68701100  0.64579889     1.02700
O73         O  0.22124487  0.73796166  0.63534220    -0.77800
O74         O  0.14570810  0.77255354  0.61523733    -0.78000
C75         C  0.10635260  0.78160305  0.62366975     1.02600
O76         O  0.17744225  0.86221305  0.74071267    -0.85300
O77         O  0.12739349  0.77052736  0.79931052    -0.82400
C78         C  0.16392059  0.76703038  0.82335838     0.98200
O79         O  0.20139819  0.76233363  0.80198275    -0.82400
O80         O  0.26386667  0.75619677  0.72736689    -0.85000
C81         C  0.29797146  0.80622542  0.71801919     1.02600
O82         O  0.28325502  0.83577047  0.69503283    -0.77800
O83         O  0.21603214  0.87627534  0.66876164    -0.78000
C84         C  0.20942136  0.89500444  0.70867221     1.02600
Cr85       Cr  0.12174979  0.78421055  0.72940779     1.93700
Cr86       Cr  0.18322191  0.71982836  0.74117635     1.93200
Cr87       Cr  0.21330366  0.80306885  0.65719832     1.39100
O88         O  0.17296697  0.76924487  0.70941229    -1.23100
O89         O  0.30388683  0.18833160  0.34647310    -0.85300
O90         O  0.35477665  0.27750073  0.28477156    -0.82400
C91         C  0.38688442  0.31027889  0.25309954     0.98100
O92         O  0.43201550  0.31175833  0.24444729    -0.82400
O93         O  0.48728022  0.32289628  0.33182557    -0.85100
C94         C  0.50306699  0.31079603  0.37048180     1.02700
O95         O  0.48372325  0.26042898  0.38254735    -0.77800
O96         O  0.37248650  0.21943751  0.39762898    -0.78000
C97         C  0.32574306  0.21279177  0.38572964     1.02600
O98         O  0.32252076  0.12390006  0.27536277    -0.85300
O99         O  0.36641040  0.20965679  0.21295039    -0.82400
C100        C  0.40876679  0.21109162  0.19479903     0.98200
O101        O  0.45172744  0.22511778  0.21931425    -0.82400
O102        O  0.51805936  0.24586390  0.29848196    -0.85000
C103        C  0.50571697  0.19637886  0.30545152     1.02600
O104        O  0.46007580  0.16292277  0.32537237    -0.77800
O105        O  0.34835727  0.11413465  0.34808637    -0.78000
C106        C  0.32309001  0.09333927  0.30850002     1.02600
Cr107      Cr  0.34169886  0.20127985  0.28211609     1.93700
Cr108      Cr  0.46771426  0.27281990  0.27621799     1.93200
Cr109      Cr  0.41504213  0.19089419  0.36002105     1.39100
O110        O  0.40788998  0.22123376  0.30608759    -1.23100
O111        O  0.31453736  0.10173531  0.84175193    -0.85300
O112        O  0.37353636  0.06597460  0.89761145    -0.82400
C113        C  0.40858896  0.06637855  0.92688756     0.98100
O114        O  0.44922060  0.11173347  0.93902493    -0.82400
O115        O  0.50001029  0.15881597  0.85189722    -0.85100
C116        C  0.51163896  0.18551817  0.81252420     1.02700
O117        O  0.49090353  0.21615863  0.80266004    -0.77800
O118        O  0.37918818  0.14698477  0.78742958    -0.78000
C119        C  0.33260152  0.10632114  0.79901826     1.02600
O120        O  0.32945041  0.17924739  0.91567026    -0.85300
O121        O  0.37856105  0.13804655  0.97355154    -0.82400
C122        C  0.41784371  0.18093417  0.99209438     0.98200
O123        O  0.45977426  0.21330521  0.96750167    -0.82400
O124        O  0.52492186  0.26257605  0.88701482    -0.85000
C125        C  0.50805542  0.29643677  0.88893771     1.02600
O126        O  0.46354738  0.28464743  0.86758942    -0.77800
O127        O  0.35394964  0.22088851  0.84494873    -0.78000
C128        C  0.32796212  0.21194294  0.88489878     1.02600
Cr129      Cr  0.35360168  0.12473650  0.90484326     1.93700
Cr130      Cr  0.47904676  0.18576894  0.90905474     1.93200
Cr131      Cr  0.42176689  0.21455214  0.82890311     1.39100
O132        O  0.41761497  0.17454564  0.88041048    -1.23100
O133        O  0.10866709  0.32170471  0.50562375    -0.85300
O134        O  0.07683440  0.37813886  0.44386140    -0.82400
C135        C  0.07867206  0.41050104  0.41120582     0.98100
O136        O  0.12331213  0.45451251  0.40355823    -0.82400
O137        O  0.16993696  0.50404603  0.49277728    -0.85100
C138        C  0.19872152  0.51762234  0.53089600     1.02700
O139        O  0.23084665  0.49832567  0.53939024    -0.77800
O140        O  0.15872103  0.38879105  0.55662119    -0.78000
C141        C  0.11495939  0.34418204  0.54672631     1.02600
O142        O  0.18616736  0.32927052  0.43264007    -0.85300
O143        O  0.15238922  0.38145616  0.37143859    -0.82400
C144        C  0.19351430  0.42289938  0.35244863     0.98200
O145        O  0.22458054  0.46566604  0.37640812    -0.82400
O146        O  0.27494605  0.52930165  0.45654564    -0.85000
C147        C  0.30939271  0.51272825  0.45497022     1.02600
O148        O  0.29705863  0.46734932  0.47539920    -0.77800
O149        O  0.22991564  0.35721202  0.50175449    -0.78000
C150        C  0.21791753  0.32756762  0.46385128     1.02600
Cr151      Cr  0.13481021  0.35738752  0.44058136     1.93700
Cr152      Cr  0.19711891  0.48394969  0.43503946     1.93200
Cr153      Cr  0.22643528  0.42730919  0.51485633     1.39100
O154        O  0.18592139  0.42215064  0.46347442    -1.23100
O155        O  0.68321187  0.89587641  0.32622542    -0.85300
O156        O  0.62399249  0.92629354  0.38741119    -0.82400
C157        C  0.58875431  0.92236989  0.41826046     0.98100
O158        O  0.54772275  0.87572941  0.42738693    -0.82400
O159        O  0.49561709  0.82886509  0.34123895    -0.85100
C160        C  0.48311181  0.80263066  0.30185780     1.02700
O161        O  0.50666184  0.77536726  0.28946180    -0.77800
O162        O  0.61622629  0.85199007  0.27423788    -0.78000
C163        C  0.66145577  0.89411544  0.28570109     1.02600
O164        O  0.67420891  0.81703981  0.39711497    -0.85300
O165        O  0.62259392  0.85151838  0.45907000    -0.82400
C166        C  0.58335236  0.80886111  0.47848756     0.98200
O167        O  0.54175988  0.77591884  0.45392449    -0.82400
O168        O  0.47623171  0.72476203  0.37463736    -0.85000
C169        C  0.49230533  0.69077456  0.36572953     1.02600
O170        O  0.53929169  0.70737139  0.34677453    -0.77800
O171        O  0.64946035  0.77860298  0.32531729    -0.78000
C172        C  0.67665281  0.78692424  0.36446799     1.02600
Cr173      Cr  0.64614214  0.86880157  0.39012546     1.93700
Cr174      Cr  0.52009993  0.80252899  0.39654662     1.93200
Cr175      Cr  0.57867580  0.78118373  0.31259853     1.39100
O176        O  0.58199183  0.81739032  0.36638669    -1.23100
O177        O  0.19178543  0.30560192  0.00253361    -0.85300
O178        O  0.28203252  0.35736415  0.06302131    -0.82400
C179        C  0.31591874  0.39095399  0.09314084     0.98100
O180        O  0.31949142  0.43744605  0.09886732    -0.82400
O181        O  0.32970468  0.48871936  0.00918128    -0.85100
C182        C  0.31697300  0.50245822  0.96977463     1.02700
O183        O  0.26646249  0.48362106  0.95865843    -0.77800
O184        O  0.22500143  0.37129353  0.94806341    -0.78000
C185        C  0.21625752  0.32437103  0.96253794     1.02600
O186        O  0.12976185  0.32975243  0.07111357    -0.85300
O187        O  0.21622579  0.37380801  0.13294538    -0.82400
C188        C  0.21996437  0.41775674  0.14930362     0.98200
O189        O  0.23437166  0.45948339  0.12296002    -0.82400
O190        O  0.25238068  0.52042792  0.04078455    -0.85000
C191        C  0.20178985  0.50586012  0.03917127     1.02600
O192        O  0.16893677  0.46154470  0.01729498    -0.77800
O193        O  0.12075113  0.34967217  0.99601098    -0.78000
C194        C  0.09935230  0.32622628  0.03616117     1.02600
Cr195      Cr  0.20648027  0.34623166  0.06504914     1.93700
Cr196      Cr  0.28051784  0.47209449  0.06541034     1.93200
Cr197      Cr  0.19716755  0.41608386  0.98331988     1.39100
O198        O  0.22796269  0.41118794  0.03791486    -1.23100
O199        O  0.22788193  0.90062645  0.16270880    -0.85300
O200        O  0.25097051  0.89216952  0.06577212    -0.82400
C201        C  0.29951621  0.89965223  0.06476793     0.98100
O202        O  0.31180068  0.87038689  0.09111146    -0.82400
O203        O  0.29639751  0.78191560  0.14957409    -0.85100
C204        C  0.29837176  0.79126113  0.19462211     1.02700
O205        O  0.26104937  0.79728410  0.21488819    -0.77800
O206        O  0.18883101  0.83690345  0.21985560    -0.78000
C207        C  0.21873495  0.88763504  0.20710604     1.02600
O208        O  0.11636102  0.81395394  0.14828832    -0.85300
O209        O  0.14524794  0.79638449  0.05635003    -0.82400
C210        C  0.17075843  0.78332522  0.02598190     0.98200
O211        O  0.21974651  0.79418094  0.03407583    -0.82400
O212        O  0.20202665  0.71202865  0.09119735    -0.85000
C213        C  0.18303575  0.67896463  0.12599315     1.02600
O214        O  0.18144666  0.69614720  0.16831363    -0.77800
O215        O  0.10763283  0.73430980  0.16415030    -0.78000
C216        C  0.08643495  0.76220105  0.14906016     1.02600
Cr217      Cr  0.18683388  0.84802827  0.11018699     1.93700
Cr218      Cr  0.25464050  0.79088033  0.09498362     1.93200
Cr219      Cr  0.18563927  0.76871420  0.18818529     1.39100
O220        O  0.21027319  0.80315703  0.13176211    -1.23100
O221        O  0.76974199  0.09091496  0.66408075    -0.85300
O222        O  0.73773789  0.08734908  0.56848009    -0.82400
C223        C  0.68769983  0.07494547  0.57018581     0.98100
O224        O  0.67339155  0.10203814  0.59708551    -0.82400
O225        O  0.68207126  0.19218265  0.64799164    -0.85100
C226        C  0.68599418  0.19007572  0.69346434     1.02700
O227        O  0.72788393  0.19145220  0.71203139    -0.77800
O228        O  0.80532787  0.15953635  0.71709338    -0.78000
C229        C  0.78070720  0.10780545  0.70726566     1.02600
O230        O  0.87547984  0.18067339  0.64177012    -0.85300
O231        O  0.83607320  0.18708629  0.55003601    -0.82400
C232        C  0.80455672  0.19203894  0.51997797     0.98200
O233        O  0.75528126  0.17803255  0.53073469    -0.82400
O234        O  0.76744342  0.26200556  0.58202712    -0.85000
C235        C  0.78631171  0.29907537  0.61343703     1.02600
O236        O  0.79821692  0.28941542  0.65557328    -0.77800
O237        O  0.87901536  0.25864274  0.65479413    -0.78000
C238        C  0.90353309  0.23251890  0.64360949     1.02600
Cr239      Cr  0.80278097  0.13949547  0.60800419     1.93700
Cr240      Cr  0.72314841  0.18305112  0.59289011     1.93200
Cr241      Cr  0.80151617  0.22193106  0.68101315     1.39100
O242        O  0.77512606  0.18140577  0.62790786    -1.23100
O243        O  0.89816510  0.67231692  0.98475484    -0.85300
O244        O  0.88182520  0.64039899  0.88794527    -0.82400
C245        C  0.88967164  0.59981057  0.88474542     0.98100
O246        O  0.86296206  0.55806904  0.91166511    -0.82400
O247        O  0.78096850  0.48558342  0.97642388    -0.85100
C248        C  0.79480741  0.49444467  0.02067394     1.02700
O249        O  0.80181013  0.53813760  0.04095270    -0.77800
O250        O  0.83939187  0.64977611  0.04571507    -0.78000
C251        C  0.88879246  0.66983442  0.02991970     1.02600
O252        O  0.81083182  0.69679490  0.97760295    -0.85300
O253        O  0.78573676  0.64938643  0.88478309    -0.82400
C254        C  0.77169020  0.61101689  0.85392126     0.98200
O255        O  0.78137942  0.57191906  0.86155095    -0.82400
O256        O  0.70491250  0.50934115  0.92440786    -0.85000
C257        C  0.67574147  0.49640252  0.96179015     1.02600
O258        O  0.69706431  0.51578515  0.00274404    -0.77800
O259        O  0.73297589  0.62716648  0.99935517    -0.78000
C260        C  0.75968415  0.67621349  0.98411439     1.02600
Cr261      Cr  0.84137382  0.66022444  0.93581930     1.93700
Cr262      Cr  0.78394858  0.53537701  0.92211639     1.93200
Cr263      Cr  0.76998600  0.58402803  0.01810566     1.39100
O264        O  0.79891535  0.59261919  0.95908064    -1.23100
C265        C  0.02216692  0.69424361  0.08927684    -0.12200
C266        C  0.03182929  0.73482370  0.12405187     0.04800
C267        C  0.99281309  0.75281978  0.12880261    -0.07500
C268        C  0.94482638  0.72938701  0.09978958    -0.08300
C269        C  0.93625659  0.69000820  0.06407192    -0.02800
C270        C  0.97565711  0.67255280  0.05898818     0.04000
N271        N  0.96953273  0.63352001  0.02242715     0.66500
H272        H  0.05232750  0.68093117  0.08404757     0.15400
H273        H  0.91544897  0.74386275  0.10368002     0.15100
N274        N  0.00187613  0.79554653  0.16222634     0.74200
O275        O  0.00516543  0.64740706  0.98910822    -0.39300
O276        O  0.92870736  0.58504566  0.02347527    -0.39200
O277        O  0.02272304  0.84477532  0.14741498    -0.39900
O278        O  0.98109378  0.78302301  0.20420428    -0.40000
C279        C  0.14121636  0.59823572  0.07094563    -0.12200
C280        C  0.16873343  0.62139987  0.11499804     0.04800
C281        C  0.19806013  0.59862842  0.13732251    -0.07500
C282        C  0.20613325  0.55940465  0.11246278    -0.08300
C283        C  0.18335403  0.54015211  0.06608339    -0.02800
C284        C  0.14817854  0.55782983  0.04639783     0.04000
N285        N  0.12528095  0.54115473  0.99897516     0.66500
H286        H  0.11918908  0.61582407  0.05303455     0.15400
H287        H  0.23262702  0.54651791  0.12851059     0.15100
N288        N  0.22554131  0.61945015  0.18255391     0.74200
O289        O  0.07376843  0.51948287  0.99316141    -0.39300
O290        O  0.15678035  0.55883390  0.96244098    -0.39200
O291        O  0.20440877  0.59213061  0.22088821    -0.39900
O292        O  0.27513973  0.65813435  0.18286273    -0.40000
C293        C  0.39661605  0.80732094  0.29774889    -0.12200
C294        C  0.43695865  0.80026144  0.27319459     0.04800
C295        C  0.43044144  0.78886678  0.22313841    -0.07500
C296        C  0.38586724  0.78742789  0.19849070    -0.08300
C297        C  0.34516436  0.79411068  0.22304245    -0.05200
C298        C  0.35019239  0.80250220  0.27377337     0.04000
N299        N  0.30721170  0.80260311  0.30218006     0.66500
H300        H  0.39950977  0.81377543  0.33660738     0.15400
H301        H  0.38262274  0.77965463  0.15984281     0.15100
N302        N  0.46800623  0.77781531  0.19675154     0.74200
O303        O  0.26257866  0.75778394  0.30873432    -0.39300
O304        O  0.31814960  0.84334429  0.32905126    -0.39200
O305        O  0.45817323  0.72862155  0.19345804    -0.39900
O306        O  0.50215445  0.81380115  0.16787161    -0.40000
C307        C  0.66984799  0.05709852  0.48309889    -0.12200
C308        C  0.65180140  0.04005164  0.53103135     0.04800
C309        C  0.60455946  0.98872839  0.53939190    -0.07500
C310        C  0.57952469  0.95294484  0.50027368    -0.08300
C311        C  0.60151632  0.96764556  0.45277620    -0.02800
C312        C  0.64464192  0.02174194  0.44398910     0.04000
N313        N  0.66478857  0.04065214  0.39597172     0.66500
H314        H  0.70517744  0.09704825  0.47591250     0.15400
H315        H  0.54619945  0.91165495  0.50810848     0.15100
N316        N  0.58537451  0.96996689  0.58756585     0.74200
O317        O  0.64020275  0.05853832  0.36952020    -0.39300
O318        O  0.71229753  0.04984189  0.38387066    -0.39200
O319        O  0.54616164  0.97501260  0.60471621    -0.39900
O320        O  0.59992377  0.93925519  0.60893522    -0.40000
C321        C  0.46044235  0.60630822  0.41759989    -0.12200
C322        C  0.45263511  0.63207547  0.37669884     0.04800
C323        C  0.39930126  0.60950777  0.35708350    -0.07500
C324        C  0.35411874  0.56806810  0.38204433    -0.08300
C325        C  0.36055664  0.54640264  0.42603472    -0.02800
C326        C  0.41460187  0.56303744  0.44221372     0.04000
N327        N  0.42346748  0.54032060  0.48554262     0.66500
H328        H  0.50118759  0.62331982  0.43321732     0.15400
H329        H  0.31346873  0.55519274  0.36810570     0.15100
N330        N  0.38973525  0.63224402  0.31407781     0.74200
O331        O  0.45022365  0.51485058  0.48372684    -0.39300
O332        O  0.40847257  0.54934721  0.52609981    -0.39200
O333        O  0.38935541  0.61124583  0.27349490    -0.39900
O334        O  0.37128237  0.66524227  0.31739997    -0.40000
C335        C  0.25572495  0.42647413  0.23114564    -0.12200
C336        C  0.21355230  0.42194948  0.20075611     0.04800
C337        C  0.16569625  0.41918260  0.22004284    -0.07500
C338        C  0.15976584  0.41917733  0.27016169    -0.08300
C339        C  0.20159355  0.42284725  0.30066284    -0.02800
C340        C  0.25019306  0.42726256  0.28125569     0.04000
N341        N  0.29267062  0.42974693  0.31191557     0.66500
H342        H  0.29246361  0.42827362  0.21585687     0.15400
H343        H  0.12271180  0.41669485  0.28534308     0.15100
N344        N  0.12265552  0.41513286  0.18926262     0.74200
O345        O  0.28462480  0.38711480  0.33478258    -0.39300
O346        O  0.34072670  0.47117627  0.30988514    -0.39200
O347        O  0.08071967  0.36854921  0.18145835    -0.39900
O348        O  0.12227856  0.45841918  0.17659447    -0.40000
C349        C  0.04153820  0.26092824  0.58940114    -0.12200
C350        C  0.06836629  0.31824039  0.58197708     0.04800
C351        C  0.04419715  0.34810965  0.60138549    -0.07500
C352        C  0.99198884  0.31992902  0.62401168    -0.08300
C353        C  0.96337451  0.26198966  0.62901828    -0.02800
C354        C  0.99044904  0.23294164  0.61367055     0.04000
N355        N  0.96625114  0.17475287  0.62134208     0.66500
H356        H  0.05974182  0.23743260  0.57514077     0.15400
H357        H  0.97275190  0.34345551  0.63565274     0.15100
N358        N  0.06967713  0.40651502  0.59439817     0.74200
O359        O  0.94497360  0.14199452  0.58619273    -0.39300
O360        O  0.97531976  0.15728041  0.66055241    -0.39200
O361        O  0.10598082  0.43870528  0.62385119    -0.39900
O362        O  0.04940927  0.42565654  0.56434794    -0.40000
C363        C  0.54488861  0.39745310  0.89922593    -0.12200
C364        C  0.54106145  0.34834341  0.91617731     0.04800
C365        C  0.57210561  0.35024441  0.95774669    -0.07500
C366        C  0.60878585  0.40098844  0.97861186    -0.08300
C367        C  0.61906605  0.45028899  0.95670264    -0.02800
C368        C  0.58478692  0.44854440  0.91811025     0.04000
N369        N  0.59241439  0.49802898  0.89541837     0.66500
H370        H  0.52072512  0.39665390  0.86818685     0.15400
H371        H  0.63525182  0.40182514  0.00778419     0.15100
N372        N  0.57054380  0.30193308  0.97743219     0.74200
O373        O  0.63112397  0.52288069  0.86518039    -0.39300
O374        O  0.55322139  0.50836739  0.89599023    -0.39200
O375        O  0.59940223  0.28402666  0.95769249    -0.39900
O376        O  0.55542071  0.28867763  0.02092640    -0.40000
C377        C  0.59491920  0.17623409  0.80241245    -0.12200
C378        C  0.55417995  0.18472046  0.78076477     0.04800
C379        C  0.55688852  0.19447616  0.73046585    -0.07500
C380        C  0.59950114  0.19507213  0.70294055    -0.08300
C381        C  0.64108408  0.18758486  0.72467595    -0.02800
C382        C  0.63867581  0.17872623  0.77543829     0.04000
N383        N  0.68073426  0.17377303  0.80085010     0.66500
H384        H  0.59427568  0.16994577  0.84121773     0.15400
H385        H  0.60020176  0.20214900  0.66430203     0.15100
N386        N  0.51625361  0.20286847  0.70655053     0.74200
O387        O  0.72746748  0.21626053  0.80677396    -0.39300
O388        O  0.66714274  0.13209177  0.82752137    -0.39200
O389        O  0.52718132  0.25128235  0.69583122    -0.39900
O390        O  0.47422665  0.16211922  0.68849315    -0.40000
C391        C  0.25130723  0.21206330  0.93097735    -0.12200
C392        C  0.29445103  0.23877973  0.89720227     0.04800
C393        C  0.30680660  0.29161230  0.88016462    -0.07500
C394        C  0.27806079  0.31736819  0.89896706    -0.08300
C395        C  0.23712838  0.29176834  0.93516635    -0.02800
C396        C  0.22298658  0.23750718  0.94992037     0.04000
N397        N  0.18154958  0.20808103  0.98595897     0.66500
H398        H  0.24027212  0.17121775  0.94419296     0.15400
H399        H  0.29038820  0.35902834  0.88737130     0.15100
N400        N  0.35143046  0.32171667  0.84704022     0.74200
O401        O  0.13184010  0.17821662  0.97327877    -0.39300
O402        O  0.19584732  0.20355797  0.02836412    -0.39200
O403        O  0.34126762  0.32785208  0.80362254    -0.39900
O404        O  0.39999789  0.35014663  0.86302146    -0.40000
C405        C  0.34768253  0.96808099  0.94282176    -0.12200
C406        C  0.39588725  0.01616733  0.95488121     0.04800
C407        C  0.42055328  0.01926612  0.00074569    -0.07500
C408        C  0.39010666  0.97944862  0.03669110    -0.08300
C409        C  0.33710886  0.93580846  0.02628302    -0.02800
C410        C  0.31806616  0.92865456  0.97795646     0.04000
N411        N  0.26678307  0.88293147  0.96384845     0.66500
H412        H  0.32948186  0.96352617  0.90723163     0.15400
H413        H  0.40672287  0.98380099  0.07288621     0.15100
N414        N  0.47529217  0.06305036  0.01149573     0.74200
O415        O  0.22564783  0.88998087  0.96044030    -0.39300
O416        O  0.26795253  0.84576649  0.93882685    -0.39200
O417        O  0.48575768  0.08739501  0.05187319    -0.39900
O418        O  0.51450935  0.07339466  0.98263115    -0.40000
C419        C  0.32560339  0.01001237  0.28062598    -0.12200
C420        C  0.29423442  0.03294457  0.29828994     0.04800
C421        C  0.23645458  0.00359169  0.29098793    -0.07500
C422        C  0.21157070  0.95397651  0.26418770    -0.08300
C423        C  0.24357423  0.93313751  0.24353982    -0.02800
C424        C  0.30117623  0.96130593  0.25268131     0.04000
N425        N  0.33624389  0.94364061  0.23055048     0.66500
H426        H  0.37022585  0.03311106  0.28411269     0.15400
H427        H  0.16756675  0.93347111  0.25708273     0.15100
N428        N  0.20322552  0.02610471  0.30765283     0.74200
O429        O  0.34411903  0.94864503  0.18528958    -0.39300
O430        O  0.36786597  0.93438929  0.25666890    -0.39200
O431        O  0.18604484  0.04851901  0.27788799    -0.39900
O432        O  0.19664166  0.02951805  0.35255605    -0.40000
C433        C  0.41761627  0.24481345  0.11171789    -0.12200
C434        C  0.40988560  0.20212389  0.14327505     0.04800
C435        C  0.40476775  0.15277662  0.12522860    -0.07500
C436        C  0.40764239  0.14686970  0.07534312    -0.08300
C437        C  0.41599076  0.18974041  0.04371949    -0.02800
C438        C  0.42069468  0.23891970  0.06182226     0.04000
N439        N  0.42518309  0.28146459  0.02994581     0.66500
H440        H  0.42091507  0.28254676  0.12590437     0.15400
H441        H  0.40266593  0.10851242  0.06113225     0.15100
N442        N  0.39490035  0.10797151  0.15682881     0.74200
O443        O  0.47017876  0.32658048  0.02717887    -0.39300
O444        O  0.38191060  0.27820960  0.01240103    -0.39200
O445        O  0.34972951  0.08267288  0.17969070    -0.39900
O446        O  0.42633701  0.08755537  0.15514108    -0.40000
C447        C  0.30040176  0.32118282  0.15441918    -0.12200
C448        C  0.33815311  0.37072107  0.13146146     0.04800
C449        C  0.39039751  0.40408902  0.15268558    -0.07500
C450        C  0.40495214  0.38583333  0.19473293    -0.08300
C451        C  0.36700745  0.33597567  0.21752542    -0.02800
C452        C  0.31363577  0.30439700  0.19757808     0.04000
N453        N  0.27281741  0.25396437  0.21967119     0.66500
H454        H  0.25902841  0.29635074  0.13999412     0.15400
H455        H  0.44646258  0.40999444  0.20898578     0.15100
N456        N  0.42952571  0.45562342  0.13118103     0.74200
O457        O  0.24235694  0.25555550  0.25280106    -0.39300
O458        O  0.26001886  0.20837566  0.19993589    -0.39200
O459        O  0.44196066  0.50025013  0.15259414    -0.39900
O460        O  0.45808521  0.45615601  0.09541525    -0.40000
C461        C  0.23990803  0.21556876  0.40728439    -0.12200
C462        C  0.29653796  0.23574865  0.41538173     0.04800
C463        C  0.32472470  0.28210236  0.44630422    -0.07500
C464        C  0.29751188  0.30929474  0.46502779    -0.08300
C465        C  0.24212296  0.29133864  0.45370208    -0.02800
C466        C  0.21270402  0.24234176  0.42626289     0.04000
N467        N  0.15494879  0.21926432  0.41701621     0.66500
H468        H  0.21667179  0.17950344  0.38473672     0.15400
H469        H  0.32088041  0.34659400  0.48609637     0.15100
N470        N  0.38170542  0.30397765  0.45745425     0.74200
O471        O  0.13901526  0.22554496  0.37589710    -0.39300
O472        O  0.12024219  0.18445923  0.44636800    -0.39200
O473        O  0.41790540  0.34223995  0.43147501    -0.39900
O474        O  0.39449538  0.29563776  0.49919405    -0.40000
C475        C  0.24071339  0.63877262  0.61716126    -0.12200
C476        C  0.19356320  0.64447622  0.61565290     0.04800
C477        C  0.14753624  0.60679423  0.58841691    -0.07500
C478        C  0.15000923  0.56537763  0.56192986    -0.08300
C479        C  0.19707859  0.55931101  0.56314307    -0.02800
C480        C  0.24263336  0.59622753  0.59171599     0.04000
N481        N  0.29178533  0.59241531  0.59406538     0.66500
H482        H  0.27592327  0.66703518  0.63874552     0.15400
H483        H  0.11464418  0.53767989  0.54027818     0.15100
N484        N  0.09853494  0.61090978  0.58597771     0.74200
O485        O  0.33300054  0.62419647  0.56829190    -0.39300
O486        O  0.29756799  0.56534944  0.62803001    -0.39200
O487        O  0.08357703  0.62010528  0.54551890    -0.39900
O488        O  0.06407206  0.59203422  0.62040222    -0.40000
C489        C  0.96213642  0.63238908  0.76375963    -0.12200
C490        C  0.00965332  0.63043713  0.77550168     0.04800
C491        C  0.01038399  0.60425178  0.81972165    -0.07500
C492        C  0.96819877  0.58985550  0.85418691    -0.08300
C493        C  0.92548230  0.60079467  0.84504110    -0.02800
C494        C  0.92097893  0.61908500  0.79828529     0.04000
N495        N  0.87696967  0.62865557  0.78593155     0.66500
H496        H  0.95958150  0.65039550  0.72979855     0.15400
H497        H  0.97105239  0.57407136  0.88921186     0.15100
N498        N  0.05561957  0.59628918  0.83226133     0.74200
O499        O  0.88412489  0.67663595  0.79163565    -0.39300
O500        O  0.84220918  0.59722395  0.75515658    -0.39200
O501        O  0.07983064  0.61421926  0.87225699    -0.39900
O502        O  0.06330787  0.56184428  0.80887277    -0.40000
C503        C  0.21216171  0.97473709  0.75059971    -0.12200
C504        C  0.23865049  0.95538446  0.71958677     0.04800
C505        C  0.29443191  0.99199400  0.70662406    -0.07500
C506        C  0.32404005  0.04398917  0.72952726    -0.08300
C507        C  0.29852934  0.06068570  0.76450830    -0.02800
C508        C  0.24101125  0.02666312  0.77245216     0.04000
N509        N  0.21155165  0.04297267  0.80471631     0.66500
H510        H  0.16895961  0.94818258  0.75985119     0.15400
H511        H  0.36789510  0.06950118  0.72239733     0.15100
N512        N  0.32276375  0.97556558  0.67325002     0.74200
O513        O  0.19047011  0.07061189  0.78848924    -0.39300
O514        O  0.19721588  0.02064790  0.84603814    -0.39200
O515        O  0.32262598  0.98579556  0.62866667    -0.39900
O516        O  0.35659281  0.96169321  0.68892814    -0.40000
C517        C  0.12618974  0.78296899  0.89940554    -0.12200
C518        C  0.15823886  0.76323068  0.87649991     0.04800
C519        C  0.17937261  0.73561227  0.90451906    -0.07500
C520        C  0.17225874  0.73273771  0.95461869    -0.08300
C521        C  0.14873543  0.76100122  0.97780552    -0.02800
C522        C  0.12106641  0.78184496  0.94992378     0.04000
N523        N  0.09203312  0.80624572  0.97222113     0.66500
H524        H  0.10704659  0.80164784  0.87824272     0.15400
H525        H  0.19223958  0.71494588  0.97590530     0.15100
N526        N  0.21254633  0.71492278  0.88367142     0.74200
O527        O  0.11309068  0.85810871  0.97255647    -0.39300
O528        O  0.04172646  0.77610279  0.98327571    -0.39200
O529        O  0.26415792  0.74645550  0.88067797    -0.39900
O530        O  0.19316252  0.66345928  0.88021305    -0.40000
C531        C  0.75014618  0.39727259  0.55076189    -0.12200
C532        C  0.79352506  0.44961644  0.56320353     0.04800
C533        C  0.83627065  0.45319797  0.59337696    -0.07500
C534        C  0.83405546  0.40412392  0.61053846    -0.08300
C535        C  0.78911389  0.35186321  0.59900525    -0.02800
C536        C  0.74682147  0.34923922  0.56889531     0.04000
N537        N  0.69803341  0.29783013  0.55850822     0.66500
H538        H  0.71651503  0.39350643  0.52837535     0.15400
H539        H  0.86690809  0.40684772  0.63327455     0.15100
N540        N  0.88028255  0.50560659  0.60893097     0.74200
O541        O  0.65797090  0.27881389  0.58793016    -0.39300
O542        O  0.69099150  0.27742427  0.51655340    -0.39200
O543        O  0.86961034  0.53685997  0.63417104    -0.39900
O544        O  0.92972220  0.51628546  0.60486131    -0.40000
C545        C  0.59081639  0.39991356  0.37075340    -0.12200
C546        C  0.54916038  0.35600023  0.39776545     0.04800
C547        C  0.55381913  0.35678065  0.44883982    -0.07500
C548        C  0.59598419  0.40395612  0.47139133    -0.08300
C549        C  0.63718852  0.44797666  0.44438222    -0.02800
C550        C  0.63625979  0.44438792  0.39323588     0.04000
N551        N  0.68072185  0.48427319  0.36352189     0.66500
H552        H  0.58933329  0.39826383  0.33147981     0.15400
H553        H  0.59819564  0.40519719  0.51066434     0.15100
N554        N  0.51771247  0.31025488  0.47845599     0.74200
O555        O  0.72938189  0.49415399  0.37120820    -0.39300
O556        O  0.67002993  0.49801637  0.32306742    -0.39200
O557        O  0.51732833  0.26517445  0.47286602    -0.39900
O558        O  0.49996448  0.31835814  0.51796225    -0.40000
C559        C  0.97115287  0.75980446  0.57365029    -0.12200
C560        C  0.95293075  0.71093389  0.54706273     0.04800
C561        C  0.99128438  0.69338573  0.53612829    -0.07500
C562        C  0.04454881  0.72092626  0.55709214    -0.08300
C563        C  0.05986638  0.76570102  0.58892876    -0.02800
C564        C  0.02393323  0.78742431  0.59397535     0.04000
N565        N  0.03941550  0.83646471  0.62134430     0.66500
H566        H  0.94346869  0.77548732  0.58044455     0.15400
H567        H  0.07152317  0.70485519  0.55183599     0.15100
N568        N  0.97570127  0.64510731  0.50762374     0.74200
O569        O  0.06837432  0.88305250  0.60145677    -0.39300
O570        O  0.01544039  0.83327277  0.66107884    -0.39200
O571        O  0.00008410  0.64927158  0.46792083    -0.39900
O572        O  0.94539173  0.59791989  0.52597923    -0.40000
C573        C  0.77061304  0.65786353  0.72736135    -0.12200
C574        C  0.74957436  0.60657543  0.70342791     0.04800
C575        C  0.72093865  0.55760056  0.73106740    -0.07500
C576        C  0.72129681  0.56061596  0.78144420    -0.08300
C577        C  0.74936579  0.61163388  0.80549317    -0.02800
C578        C  0.76914711  0.66052944  0.77821930     0.04000
N579        N  0.78990730  0.71278487  0.80169833     0.66500
H580        H  0.78952574  0.69605499  0.70678020     0.15400
H581        H  0.70379645  0.52231558  0.80193785     0.15100
N582        N  0.69335268  0.50426317  0.70892540     0.74200
O583        O  0.83953149  0.75025595  0.79586344    -0.39300
O584        O  0.75748971  0.72254472  0.82621858    -0.39200
O585        O  0.71374651  0.47289764  0.71220545    -0.39900
O586        O  0.64441878  0.48496484  0.69406483    -0.40000
C587        C  0.68643548  0.70243499  0.36897123    -0.12200
C588        C  0.71028848  0.75980374  0.37448349     0.04800
C589        C  0.76150690  0.78856611  0.39868279    -0.07500
C590        C  0.78543856  0.75964409  0.41994042    -0.08300
C591        C  0.75951604  0.70158450  0.41807412    -0.02800
C592        C  0.70984488  0.67301895  0.39093541     0.04000
N593        N  0.67924132  0.61397164  0.38926922     0.66500
H594        H  0.64660567  0.67957131  0.35140581     0.15400
H595        H  0.82373790  0.78286905  0.43972322     0.15100
N596        N  0.78941895  0.84743203  0.40268482     0.74200
O597        O  0.65804608  0.58711031  0.42778538    -0.39300
O598        O  0.66149272  0.59038380  0.34900114    -0.39200
O599        O  0.78903645  0.86942440  0.44252559    -0.39900
O600        O  0.82218638  0.87679676  0.36948490    -0.40000
C601        C  0.38326521  0.80682514  0.70047593    -0.12200
C602        C  0.35617436  0.82630025  0.72968285     0.04800
C603        C  0.37930734  0.85036239  0.77480324    -0.07500
C604        C  0.42534555  0.84761895  0.79267704    -0.08300
C605        C  0.44871292  0.82181993  0.76524001    -0.02800
C606        C  0.42901333  0.80466073  0.71745232     0.04000
N607        N  0.45343504  0.78277899  0.68558567     0.66500
H608        H  0.36613452  0.78892352  0.66542527     0.15400
H609        H  0.44029670  0.86221289  0.82893490     0.15100
N610        N  0.35542696  0.87603324  0.80310480     0.74200
O611        O  0.43154359  0.73097430  0.68192570    -0.39300
O612        O  0.48304093  0.81301197  0.65118686    -0.39200
O613        O  0.31709568  0.84785461  0.83280295    -0.39900
O614        O  0.36804580  0.92533243  0.79419412    -0.40000
C615        C  0.39975684  0.59111407  0.86272107    -0.12200
C616        C  0.44194777  0.63767365  0.88642150     0.04800
C617        C  0.44411916  0.63771203  0.93751045    -0.07500
C618        C  0.40459774  0.59170257  0.96361854    -0.08300
C619        C  0.36123504  0.54625686  0.93995025    -0.02800
C620        C  0.35908845  0.54610332  0.88896861     0.04000
N621        N  0.31643733  0.50027464  0.86332492     0.66500
H622        H  0.39755949  0.59013293  0.82346412     0.15400
H623        H  0.40641376  0.59266711  0.00289342     0.15100
N624        N  0.48601560  0.68379903  0.96353445     0.74200
O625        O  0.27465602  0.50239844  0.84883099    -0.39300
O626        O  0.32535562  0.46306236  0.84735017    -0.39200
O627        O  0.48106783  0.72592313  0.96983931    -0.39900
O628        O  0.51938597  0.67721288  0.98966381    -0.40000
C629        C  0.66782306  0.70257671  0.67808820    -0.12200
C630        C  0.61604057  0.66429731  0.69729166     0.04800
C631        C  0.57924557  0.61900107  0.66864030    -0.07500
C632        C  0.59617630  0.61065388  0.62322557    -0.08300
C633        C  0.64859332  0.64824894  0.60458137    -0.02800
C634        C  0.68318356  0.69644293  0.63126945     0.04000
N635        N  0.73438552  0.73914930  0.61161293     0.66500
H636        H  0.69482979  0.73984056  0.69799932     0.15400
H637        H  0.56950742  0.57307422  0.60356563     0.15100
N638        N  0.52472522  0.58089524  0.68541574     0.74200
O639        O  0.73366414  0.76661042  0.57546626    -0.39300
O640        O  0.77856156  0.75631599  0.63534355    -0.39200
O641        O  0.48401426  0.58318344  0.66821754    -0.39900
O642        O  0.51649049  0.53895617  0.70951394    -0.40000
C643        C  0.76479670  0.76000345  0.94646579    -0.12200
C644        C  0.73214859  0.70804056  0.96868464     0.04800
C645        C  0.67404546  0.68533252  0.96906876    -0.07500
C646        C  0.65009708  0.71212424  0.94394003    -0.08300
C647        C  0.68285466  0.76137653  0.91810476    -0.02800
C648        C  0.74084521  0.78640378  0.92123094     0.04000
N649        N  0.77610770  0.83775067  0.89730874     0.66500
H650        H  0.80939124  0.77915604  0.94621393     0.15400
H651        H  0.60563966  0.69189150  0.94124534     0.15100
N652        N  0.63840815  0.63345698  0.99194900     0.74200
O653        O  0.78944978  0.88254442  0.91879351    -0.39300
O654        O  0.80143187  0.83842299  0.85910553    -0.39200
O655        O  0.61395924  0.63221701  0.03087791    -0.39900
O656        O  0.62340595  0.58921290  0.96894728    -0.40000
C657        C  0.75821444  0.97779175  0.76816508    -0.12200
C658        C  0.70814754  0.96079967  0.79306052     0.04800
C659        C  0.68893386  0.99879117  0.79778494    -0.07500
C660        C  0.71697371  0.05032821  0.77370393    -0.08300
C661        C  0.76435473  0.06492137  0.74540617    -0.02800
C662        C  0.78572712  0.02866387  0.74400254     0.04000
N663        N  0.83201697  0.04037052  0.71374795     0.66500
H664        H  0.77383678  0.94937185  0.76398445     0.15400
H665        H  0.69885650  0.07676761  0.77342613     0.15100
N666        N  0.63768468  0.98309399  0.82169200     0.74200
O667        O  0.88043801  0.07113521  0.72917000    -0.39300
O668        O  0.82470969  0.01412325  0.67468234    -0.39200
O669        O  0.59435001  0.96795636  0.79718109    -0.39900
O670        O  0.63519773  0.98205519  0.86741021    -0.40000
C671        C  0.54139630  0.75808798  0.60706085    -0.12200
C672        C  0.58783594  0.79700422  0.63254436     0.04800
C673        C  0.63434533  0.83718787  0.60733271    -0.07500
C674        C  0.63273607  0.83912428  0.55686785    -0.08300
C675        C  0.58530783  0.80112858  0.53108570    -0.02800
C676        C  0.53955494  0.75978860  0.55680717     0.04000
N677        N  0.49096467  0.71903963  0.53277702     0.66500
H678        H  0.50659867  0.72527113  0.62626446     0.15400
H679        H  0.66845775  0.87122170  0.53802640     0.15100
N680        N  0.68287393  0.87669870  0.63242909     0.74200
O681        O  0.48965225  0.67627490  0.51625929    -0.39300
O682        O  0.44676530  0.72087004  0.53587652    -0.39200
O683        O  0.72607333  0.87290171  0.63090899    -0.39900
O684        O  0.68491670  0.91923059  0.65043194    -0.40000
C685        C  0.64368247  0.20595252  0.29118989    -0.12200
C686        C  0.64210564  0.19138764  0.24212722     0.04800
C687        C  0.59085155  0.16651386  0.21792735    -0.07500
C688        C  0.54366134  0.16176604  0.24152544    -0.08300
C689        C  0.54667319  0.18065663  0.28938336    -0.02800
C690        C  0.59669196  0.20072308  0.31475607     0.04000
N691        N  0.60167948  0.22056501  0.36328574     0.66500
H692        H  0.68223124  0.22446178  0.31043368     0.15400
H693        H  0.50628482  0.14790934  0.22128344     0.15100
N694        N  0.58714403  0.15140635  0.16804634     0.74200
O695        O  0.59707155  0.18945271  0.39839169    -0.39300
O696        O  0.61909231  0.27121464  0.37072592    -0.39200
O697        O  0.57092850  0.10177790  0.15705388    -0.39900
O698        O  0.58952743  0.18457643  0.13568126    -0.40000
C699        C  0.80852512  0.45946968  0.10030826    -0.12200
C700        C  0.80061265  0.45213216  0.04989944     0.04800
C701        C  0.79572355  0.40324209  0.02939795    -0.07500
C702        C  0.79728313  0.36301865  0.05925589    -0.08300
C703        C  0.80452528  0.37038428  0.10960976    -0.02800
C704        C  0.81029558  0.41944912  0.12997864     0.04000
N705        N  0.81428667  0.42776002  0.18127237     0.66500
H706        H  0.81183556  0.49594797  0.11735889     0.15400
H707        H  0.79322357  0.32592464  0.04282294     0.15100
N708        N  0.78965690  0.39373459  0.97830839     0.74200
O709        O  0.86019734  0.46132354  0.19993234    -0.39300
O710        O  0.77074843  0.40918622  0.20642596    -0.39200
O711        O  0.83191968  0.40746273  0.95239822    -0.39900
O712        O  0.74223403  0.36324115  0.96071876    -0.40000
C713        C  0.94836904  0.28576005  0.05462761    -0.12200
C714        C  0.93099957  0.24008784  0.08600022     0.04800
C715        C  0.96619186  0.21735952  0.09180333    -0.07500
C716        C  0.01909982  0.24373941  0.07121926    -0.08300
C717        C  0.03855739  0.29244748  0.04398189    -0.02800
C718        C  0.00160081  0.31175805  0.03338526     0.04000
N719        N  0.01928947  0.36080114  0.00532809     0.66500
H720        H  0.92229877  0.30391092  0.04938034     0.15400
H721        H  0.04648117  0.22758338  0.07896028     0.15100
N722        N  0.95039485  0.16930402  0.12102013     0.74200
O723        O  0.01455720  0.35747597  0.95978303    -0.39300
O724        O  0.02990659  0.40518860  0.02621283    -0.39200
O725        O  0.92748164  0.12233701  0.10127488    -0.39900
O726        O  0.96997560  0.17469335  0.16317741    -0.40000
C727        C  0.99054571  0.40592140  0.30492565    -0.12200
C728        C  0.97989677  0.35618719  0.28267497     0.04800
C729        C  0.00077183  0.32450456  0.30458633    -0.07500
C730        C  0.02767532  0.34062636  0.34925198    -0.08300
C731        C  0.03786430  0.38992139  0.37164214    -0.02800
C732        C  0.02035938  0.42352483  0.34842310     0.04000
N733        N  0.03027926  0.47425776  0.36976532     0.66500
H734        H  0.97369129  0.43010837  0.28944415     0.15400
H735        H  0.04311228  0.31551315  0.36539295     0.15100
N736        N  0.99376137  0.27490705  0.28285217     0.74200
O737        O  0.06847623  0.51953221  0.35330384    -0.39300
O738        O  0.99486553  0.47423712  0.39833212    -0.39200
O739        O  0.03149741  0.27753420  0.25573801    -0.39900
O740        O  0.95840899  0.22868372  0.30014115    -0.40000
C741        C  0.69178125  0.01741504  0.20413105    -0.12200
C742        C  0.74882718  0.05095685  0.21175815     0.04800
C743        C  0.77720308  0.02840832  0.23679212    -0.07500
C744        C  0.74806256  0.97532619  0.25682520    -0.08300
C745        C  0.69029202  0.94344856  0.25337495    -0.02800
C746        C  0.66205752  0.96433778  0.22539352     0.04000
N747        N  0.60300635  0.93553995  0.22276442     0.66500
H748        H  0.66930418  0.03452909  0.18580452     0.15400
H749        H  0.77072579  0.96006218  0.27753605     0.15100
N750        N  0.83558268  0.06011681  0.24432635     0.74200
O751        O  0.57509676  0.92963888  0.26066375    -0.39300
O752        O  0.57998703  0.92798194  0.18195326    -0.39200
O753        O  0.85403230  0.07834690  0.28608264    -0.39900
O754        O  0.86810032  0.06126594  0.21187774    -0.40000
C755        C  0.84491709  0.19712022  0.38985696    -0.12200
C756        C  0.82389359  0.22976448  0.37056947     0.04800
C757        C  0.80525584  0.25663168  0.40211499    -0.07500
C758        C  0.80396684  0.24707222  0.45173512    -0.08300
C759        C  0.82141589  0.21154218  0.47058507    -0.02800
C760        C  0.84359581  0.18762825  0.43966872     0.04000
N761        N  0.86008366  0.14988301  0.45759701     0.66500
H762        H  0.86004209  0.17672274  0.36604583     0.15400
H763        H  0.78751649  0.26614318  0.47571412     0.15100
N764        N  0.78846444  0.29431929  0.38461804     0.74200
O765        O  0.82380693  0.10159992  0.46992800    -0.39300
O766        O  0.90986660  0.16165481  0.45375783    -0.39200
O767        O  0.74019079  0.28524445  0.39322843    -0.39900
O768        O  0.82431375  0.34085657  0.36820329    -0.40000
loop_ 
_geom_bond_atom_site_label_1 
_geom_bond_atom_site_label_2 
_geom_bond_distance 
_geom_bond_site_symmetry_2 
_ccdc_geom_bond_type 
O1          Cr19   1.987       .  S
O1            C9   1.259       .  A
O2          Cr19   1.978       .  S
O2            C3   1.262       .  A
C3            O4   1.262       .  A
C3          C728   1.478       .  S
O4          Cr20   1.993       .  S
O5          Cr20   1.974       .  S
O5            C6   1.261       .  A
C6            O7   1.272       .  A
C6          C703   1.493       .  S
O7          Cr21   2.032       .  S
O8          Cr21   2.018       .  S
O8            C9   1.268       .  A
C9          C714   1.496       .  S
O10         Cr19   1.955       .  S
O10          C18   1.255       .  A
O11         Cr19   1.972       .  S
O11          C12   1.256       .  A
C12          O13   1.263       .  A
C12         C756   1.465       .  S
O13         Cr20   1.980       .  S
O14         Cr20   1.993       .  S
O14          C15   1.263       .  A
C15          O16   1.267       .  A
C15         C686   1.490       .  S
O16         Cr21   2.016       .  S
O17         Cr21   2.042       .  S
O17          C18   1.272       .  A
C18         C742   1.487       .  S
Cr19         O22   1.775       .  S
Cr20         O22   1.774       .  S
Cr21         O22   1.779       .  S
O23         Cr41   1.990       .  S
O23          C31   1.263       .  A
O24         Cr41   1.976       .  S
O24          C25   1.257       .  A
C25          O26   1.250       .  A
C25         C630   1.465       .  S
O26         Cr42   1.969       .  S
O27         Cr42   1.953       .  S
O27          C28   1.261       .  A
C28          O29   1.278       .  A
C28         C616   1.481       .  S
O29         Cr43   2.041       .  S
O30         Cr43   2.002       .  S
O30          C31   1.266       .  A
C31         C647   1.486       .  S
O32         Cr41   1.945       .  S
O32          C40   1.253       .  A
O33         Cr41   1.997       .  S
O33          C34   1.264       .  A
C34          O35   1.260       .  A
C34         C672   1.453       .  S
O35         Cr42   1.953       .  S
O36         Cr42   1.980       .  S
O36          C37   1.253       .  A
C37          O38   1.263       .  A
C37         C605   1.489       .  S
O38         Cr43   2.028       .  S
O39         Cr43   2.034       .  S
O39          C40   1.270       .  A
C40         C658   1.491       .  S
Cr41         O44   1.781       .  S
Cr42         O44   1.775       .  S
Cr43         O44   1.778       .  S
O45         Cr63   2.000       .  S
O45          C53   1.264       .  A
O46         Cr63   1.971       .  S
O46          C47   1.258       .  A
C47          O48   1.259       .  A
C47         C633   1.467       .  S
O48         Cr64   1.978       .  S
O49         Cr64   1.969       .  S
O49          C50   1.259       .  A
C50          O51   1.264       .  A
C50         C549   1.478       .  S
O51         Cr65   2.015       .  S
O52         Cr65   2.021       .  S
O52          C53   1.267       .  A
C53         C591   1.506       .  S
O54         Cr63   1.958       .  S
O54          C62   1.258       .  A
O55         Cr63   2.003       .  S
O55          C56   1.263       .  A
C56          O57   1.263       .  A
C56         C574   1.483       .  S
O57         Cr64   1.974       .  S
O58         Cr64   1.980       .  S
O58          C59   1.264       .  A
C59          O60   1.271       .  A
C59         C532   1.486       .  S
O60         Cr65   2.022       .  S
O61         Cr65   2.038       .  S
O61          C62   1.271       .  A
C62         C560   1.487       .  S
Cr63         O66   1.774       .  S
Cr64         O66   1.765       .  S
Cr65         O66   1.779       .  S
O67         Cr85   1.994       .  S
O67          C75   1.261       .  A
O68         Cr85   1.991       .  S
O68          C69   1.269       .  A
C69          O70   1.257       .  A
C69         C490   1.482       .  S
O70         Cr86   1.980       .  S
O71         Cr86   1.964       .  S
O71          C72   1.254       .  A
C72          O73   1.270       .  A
C72         C476   1.471       .  S
O73         Cr87   2.029       .  S
O74         Cr87   2.008       .  S
O74          C75   1.264       .  A
C75         C563   1.493       .  S
O76         Cr85   1.971       .  S
O76          C84   1.262       .  A
O77         Cr85   1.986       .  S
O77          C78   1.260       .  A
C78          O79   1.261       .  A
C78         C518   1.471       .  S
O79         Cr86   1.971       .  S
O80         Cr86   1.989       .  S
O80          C81   1.263       .  A
C81          O82   1.259       .  A
C81         C602   1.466       .  S
O82         Cr87   1.992       .  S
O83         Cr87   2.031       .  S
O83          C84   1.271       .  A
C84         C504   1.493       .  S
Cr85         O88   1.764       .  S
Cr86         O88   1.771       .  S
Cr87         O88   1.777       .  S
O89        Cr107   2.000       .  S
O89          C97   1.265       .  A
O90        Cr107   1.972       .  S
O90          C91   1.256       .  A
C91          O92   1.261       .  A
C91         C451   1.476       .  S
O92        Cr108   2.004       .  S
O93        Cr108   1.963       .  S
O93          C94   1.262       .  A
C94          O95   1.272       .  A
C94         C546   1.484       .  S
O95        Cr109   2.032       .  S
O96        Cr109   2.014       .  S
O96          C97   1.266       .  A
C97         C462   1.504       .  S
O98        Cr107   1.958       .  S
O98         C106   1.254       .  A
O99        Cr107   2.000       .  S
O99         C100   1.264       .  A
C100        O101   1.258       .  A
C100        C434   1.446       .  S
O101       Cr108   1.962       .  S
O102       Cr108   1.992       .  S
O102        C103   1.260       .  A
C103        O104   1.267       .  A
C103        C689   1.480       .  S
O104       Cr109   2.018       .  S
O105       Cr109   2.047       .  S
O105        C106   1.274       .  A
C106        C420   1.489       .  S
Cr107       O110   1.772       .  S
Cr108       O110   1.770       .  S
Cr109       O110   1.770       .  S
O111       Cr129   1.985       .  S
O111        C119   1.261       .  A
O112       Cr129   1.986       .  S
O112        C113   1.265       .  A
C113        O114   1.254       .  A
C113        C406   1.478       .  S
O114       Cr130   1.980       .  S
O115       Cr130   1.957       .  S
O115        C116   1.262       .  A
C116        O117   1.277       .  A
C116        C378   1.482       .  S
O117       Cr131   2.038       .  S
O118       Cr131   2.014       .  S
O118        C119   1.267       .  A
C119        C507   1.494       .  S
O120       Cr129   1.969       .  S
O120        C128   1.260       .  A
O121       Cr129   1.991       .  S
O121        C122   1.262       .  A
C122        O123   1.259       .  A
C122        C437   1.450   1_556  S
O123       Cr130   1.972       .  S
O124       Cr130   1.964       .  S
O124        C125   1.249       .  A
C125        O126   1.262       .  A
C125        C364   1.479       .  S
O126       Cr131   2.016       .  S
O127       Cr131   2.033       .  S
O127        C128   1.271       .  A
C128        C392   1.499       .  S
Cr129       O132   1.759       .  S
Cr130       O132   1.769       .  S
Cr131       O132   1.772       .  S
O133       Cr151   2.001       .  S
O133        C141   1.266       .  A
O134       Cr151   1.972       .  S
O134        C135   1.257       .  A
C135        O136   1.256       .  A
C135        C731   1.474       .  S
O136       Cr152   1.998       .  S
O137       Cr152   1.961       .  S
O137        C138   1.263       .  A
C138        O139   1.276       .  A
C138        C479   1.484       .  S
O139       Cr153   2.040       .  S
O140       Cr153   2.003       .  S
O140        C141   1.266       .  A
C141        C350   1.487       .  S
O142       Cr151   1.958       .  S
O142        C150   1.254       .  A
O143       Cr151   1.997       .  S
O143        C144   1.265       .  A
C144        O145   1.260       .  A
C144        C339   1.445       .  S
O145       Cr152   1.961       .  S
O146       Cr152   1.984       .  S
O146        C147   1.257       .  A
C147        O148   1.265       .  A
C147        C325   1.487       .  S
O148       Cr153   2.026       .  S
O149       Cr153   2.038       .  S
O149        C150   1.272       .  A
C150        C465   1.495       .  S
Cr151       O154   1.771       .  S
Cr152       O154   1.772       .  S
Cr153       O154   1.775       .  S
O155       Cr173   1.988       .  S
O155        C163   1.262       .  A
O156       Cr173   1.986       .  S
O156        C157   1.261       .  A
C157        O158   1.257       .  A
C157        C311   1.478       .  S
O158       Cr174   1.982       .  S
O159       Cr174   1.957       .  S
O159        C160   1.260       .  A
C160        O161   1.274       .  A
C160        C294   1.485       .  S
O161       Cr175   2.037       .  S
O162       Cr175   2.011       .  S
O162        C163   1.265       .  A
C163        C745   1.492       .  S
O164       Cr173   1.965       .  S
O164        C172   1.257       .  A
O165       Cr173   1.988       .  S
O165        C166   1.264       .  A
C166        O167   1.262       .  A
C166        C675   1.471       .  S
O167       Cr174   1.966       .  S
O168       Cr174   1.983       .  S
O168        C169   1.259       .  A
C169        O170   1.264       .  A
C169        C322   1.480       .  S
O170       Cr175   2.017       .  S
O171       Cr175   2.042       .  S
O171        C172   1.274       .  A
C172        C588   1.495       .  S
Cr173       O176   1.772       .  S
Cr174       O176   1.767       .  S
Cr175       O176   1.772       .  S
O177       Cr195   1.993       .  S
O177        C185   1.263   1_554  A
O178       Cr195   1.972       .  S
O178        C179   1.259       .  A
C179        O180   1.261       .  A
C179        C448   1.473       .  S
O180       Cr196   2.004       .  S
O181       Cr196   1.964       .  S
O181        C182   1.261   1_554  A
C182        O183   1.273       .  A
C182        C619   1.477       .  S
O183       Cr197   2.027       .  S
O184       Cr197   2.019       .  S
O184        C185   1.270       .  A
C185        C395   1.505       .  S
O186       Cr195   1.959       .  S
O186        C194   1.256       .  A
O187       Cr195   1.992       .  S
O187        C188   1.262       .  A
C188        O189   1.254       .  A
C188        C336   1.442       .  S
O189       Cr196   1.959       .  S
O190       Cr196   1.987       .  S
O190        C191   1.260       .  A
C191        O192   1.268       .  A
C191        C283   1.490       .  S
O192       Cr197   2.025   1_554  S
O193       Cr197   2.039       .  S
O193        C194   1.271   1_556  A
C194        C717   1.489       .  S
Cr195       O198   1.765       .  S
Cr196       O198   1.772       .  S
Cr197       O198   1.773   1_556  S
O199       Cr217   1.976       .  S
O199        C207   1.265       .  A
O200       Cr217   2.002       .  S
O200        C201   1.263       .  A
C201        O202   1.260       .  A
C201        C409   1.477       .  S
O202       Cr218   1.987       .  S
O203       Cr218   1.995       .  S
O203        C204   1.265       .  A
C204        O205   1.263       .  A
C204        C297   1.492       .  S
O205       Cr219   1.985       .  S
O206       Cr219   2.056       .  S
O206        C207   1.282       .  A
C207        C423   1.494       .  S
O208       Cr217   1.999       .  S
O208        C216   1.257       .  A
O209       Cr217   1.994       .  S
O209        C210   1.264       .  A
C210        O211   1.264       .  A
C210        C521   1.468   1_554  S
O211       Cr218   1.968       .  S
O212       Cr218   1.947       .  S
O212        C213   1.249       .  A
C213        O214   1.271       .  A
C213        C280   1.481       .  S
O214       Cr219   2.045       .  S
O215       Cr219   2.006       .  S
O215        C216   1.259       .  A
C216        C266   1.492       .  S
Cr217       O220   1.778       .  S
Cr218       O220   1.759       .  S
Cr219       O220   1.774       .  S
O221       Cr239   1.954       .  S
O221        C229   1.262       .  A
O222       Cr239   1.995       .  S
O222        C223   1.260       .  A
C223        O224   1.258       .  A
C223        C308   1.468       .  S
O224       Cr240   1.980       .  S
O225       Cr240   1.993       .  S
O225        C226   1.263       .  A
C226        O227   1.260       .  A
C226        C381   1.491       .  S
O227       Cr241   1.981       .  S
O228       Cr241   2.051       .  S
O228        C229   1.282       .  A
C229        C661   1.481       .  S
O230       Cr239   1.998       .  S
O230        C238   1.257       .  A
O231       Cr239   1.984       .  S
O231        C232   1.266       .  A
C232        O233   1.262       .  A
C232        C759   1.453       .  S
O233       Cr240   1.970       .  S
O234       Cr240   1.937       .  S
O234        C235   1.249       .  A
C235        O236   1.274       .  A
C235        C535   1.489       .  S
O236       Cr241   2.052       .  S
O237       Cr241   2.007       .  S
O237        C238   1.261       .  A
C238        C353   1.501       .  S
Cr239       O242   1.778       .  S
Cr240       O242   1.763       .  S
Cr241       O242   1.774       .  S
O243       Cr261   1.980       .  S
O243        C251   1.267   1_556  A
O244       Cr261   1.985       .  S
O244        C245   1.259       .  A
C245        O246   1.262       .  A
C245        C493   1.471       .  S
O246       Cr262   1.987       .  S
O247       Cr262   2.014       .  S
O247        C248   1.268   1_556  A
C248        O249   1.266       .  A
C248        C700   1.502       .  S
O249       Cr263   1.989       .  S
O250       Cr263   2.041       .  S
O250        C251   1.277       .  A
C251        C269   1.490       .  S
O252       Cr261   1.990       .  S
O252        C260   1.257       .  A
O253       Cr261   2.006       .  S
O253        C254   1.269       .  A
C254        O255   1.265       .  A
C254        C577   1.478       .  S
O255       Cr262   1.975       .  S
O256       Cr262   1.948       .  S
O256        C257   1.248       .  A
C257        O258   1.267   1_556  A
C257        C367   1.466       .  S
O258       Cr263   2.023       .  S
O259       Cr263   2.005   1_556  S
O259        C260   1.259       .  A
C260        C644   1.496       .  S
Cr261       O264   1.771       .  S
Cr262       O264   1.763       .  S
Cr263       O264   1.777   1_554  S
C265        C266   1.405       .  A
C265        C270   1.404   1_455  A
C265        H272   1.085       .  S
C266        C267   1.413   1_455  A
C267        C268   1.412       .  A
C267        N274   1.428   1_655  S
C268        C269   1.406       .  A
C268        H273   1.084       .  S
C269        C270   1.413       .  A
C270        N271   1.432       .  S
N271        O275   1.262   1_654  A
N271        O276   1.262       .  A
N274        O278   1.262   1_455  A
N274        O277   1.262       .  A
C279        C280   1.412       .  A
C279        C284   1.409       .  A
C279        H286   1.078       .  S
C280        C281   1.403       .  A
C281        C282   1.402       .  A
C281        N288   1.430       .  S
C282        C283   1.412       .  A
C282        H287   1.066       .  S
C283        C284   1.408       .  A
C284        N285   1.430   1_554  S
N285        O289   1.262       .  A
N285        O290   1.262       .  A
N288        O292   1.262       .  A
N288        O291   1.262       .  A
C293        C294   1.408       .  A
C293        C298   1.401       .  A
C293        H300   1.083       .  S
C294        C295   1.409       .  A
C295        C296   1.401       .  A
C295        N302   1.429       .  S
C296        C297   1.411       .  A
C296        H301   1.083       .  S
C297        C298   1.414       .  A
C298        N299   1.432       .  S
N299        O303   1.262       .  A
N299        O304   1.262       .  A
N302        O306   1.261       .  A
N302        O305   1.262       .  A
C307        C308   1.408       .  A
C307        C312   1.395       .  A
C307        H314   1.076       .  S
C308        C309   1.399   1_545  A
C309        C310   1.400       .  A
C309        N316   1.428       .  S
C310        C311   1.415       .  A
C310        H315   1.081       .  S
C311        C312   1.404   1_565  A
C312        N313   1.430       .  S
N313        O317   1.262       .  A
N313        O318   1.262       .  A
N316        O320   1.261       .  A
N316        O319   1.261       .  A
C321        C322   1.411       .  A
C321        C326   1.417       .  A
C321        H328   1.081       .  S
C322        C323   1.405       .  A
C323        C324   1.393       .  A
C323        N330   1.431       .  S
C324        C325   1.405       .  A
C324        H329   1.077       .  S
C325        C326   1.412       .  A
C326        N327   1.430       .  S
N327        O331   1.262       .  A
N327        O332   1.262       .  A
N330        O334   1.262       .  A
N330        O333   1.262       .  A
C335        C336   1.399       .  A
C335        C340   1.391       .  A
C335        H342   1.085       .  S
C336        C337   1.402       .  A
C337        C338   1.391       .  A
C337        N344   1.430       .  S
C338        C339   1.402       .  A
C338        H343   1.084       .  S
C339        C340   1.403       .  A
C340        N341   1.430       .  S
N341        O345   1.262       .  A
N341        O346   1.262       .  A
N344        O348   1.261       .  A
N344        O347   1.262       .  A
C349        C350   1.402       .  A
C349        C354   1.405   1_455  A
C349        H356   1.083       .  S
C350        C351   1.412       .  A
C351        C352   1.408   1_455  A
C351        N358   1.429       .  S
C352        C353   1.408       .  A
C352        H357   1.083       .  S
C353        C354   1.420       .  A
C354        N355   1.429       .  S
N355        O359   1.262       .  A
N355        O360   1.262       .  A
N358        O362   1.262       .  A
N358        O361   1.262       .  A
C363        C364   1.399       .  A
C363        C368   1.402       .  A
C363        H370   1.084       .  S
C364        C365   1.423       .  A
C365        C366   1.395       .  A
C365        N372   1.432       .  S
C366        C367   1.393       .  A
C366        H371   1.085   1_556  S
C367        C368   1.417       .  A
C368        N369   1.430       .  S
N369        O373   1.261       .  A
N369        O374   1.262       .  A
N372        O376   1.262   1_556  A
N372        O375   1.262       .  A
C377        C378   1.405       .  A
C377        C382   1.400       .  A
C377        H384   1.083       .  S
C378        C379   1.407       .  A
C379        C380   1.402       .  A
C379        N386   1.429       .  S
C380        C381   1.411       .  A
C380        H385   1.081       .  S
C381        C382   1.416       .  A
C382        N383   1.432       .  S
N383        O387   1.262       .  A
N383        O388   1.262       .  A
N386        O390   1.262       .  A
N386        O389   1.262       .  A
C391        C392   1.404       .  A
C391        C396   1.400       .  A
C391        H398   1.084       .  S
C392        C393   1.415       .  A
C393        C394   1.415       .  A
C393        N400   1.428       .  S
C394        C395   1.411       .  A
C394        H399   1.082       .  S
C395        C396   1.419       .  A
C396        N397   1.430       .  S
N397        O401   1.262       .  A
N397        O402   1.262   1_556  A
N400        O404   1.262       .  A
N400        O403   1.262       .  A
C405        C406   1.388   1_565  A
C405        C410   1.385       .  A
C405        H412   1.084       .  S
C406        C407   1.423   1_556  A
C407        C408   1.411   1_545  A
C407        N414   1.434       .  S
C408        C409   1.400       .  A
C408        H413   1.083       .  S
C409        C410   1.413   1_554  A
C410        N411   1.418       .  S
N411        O415   1.261       .  A
N411        O416   1.260       .  A
N414        O418   1.263   1_554  A
N414        O417   1.262       .  A
C419        C420   1.403       .  A
C419        C424   1.410   1_545  A
C419        H426   1.084       .  S
C420        C421   1.413       .  A
C421        C422   1.412   1_545  A
C421        N428   1.430       .  S
C422        C423   1.405       .  A
C422        H427   1.084       .  S
C423        C424   1.417       .  A
C424        N425   1.432       .  S
N425        O429   1.262       .  A
N425        O430   1.262       .  A
N428        O432   1.262       .  A
N428        O431   1.262       .  A
C433        C434   1.400       .  A
C433        C438   1.393       .  A
C433        H440   1.084       .  S
C434        C435   1.404       .  A
C435        C436   1.392       .  A
C435        N442   1.431       .  S
C436        C437   1.401       .  A
C436        H441   1.082       .  S
C437        C438   1.404       .  A
C438        N439   1.430       .  S
N439        O443   1.261       .  A
N439        O444   1.262       .  A
N442        O446   1.262       .  A
N442        O445   1.262       .  A
C447        C448   1.401       .  A
C447        C452   1.394       .  A
C447        H454   1.085       .  S
C448        C449   1.410       .  A
C449        C450   1.405       .  A
C449        N456   1.429       .  S
C450        C451   1.406       .  A
C450        H455   1.084       .  S
C451        C452   1.412       .  A
C452        N453   1.430       .  S
N453        O457   1.262       .  A
N453        O458   1.262       .  A
N456        O460   1.262       .  A
N456        O459   1.262       .  A
C461        C462   1.407       .  A
C461        C466   1.404       .  A
C461        H468   1.083       .  S
C462        C463   1.418       .  A
C463        C464   1.411       .  A
C463        N470   1.425       .  S
C464        C465   1.403       .  A
C464        H469   1.083       .  S
C465        C466   1.415       .  A
C466        N467   1.430       .  S
N467        O471   1.262       .  A
N467        O472   1.262       .  A
N470        O474   1.261       .  A
N470        O473   1.262       .  A
C475        C476   1.402       .  A
C475        C480   1.404       .  A
C475        H482   1.083       .  S
C476        C477   1.407       .  A
C477        C478   1.398       .  A
C477        N484   1.429       .  S
C478        C479   1.405       .  A
C478        H483   1.082       .  S
C479        C480   1.414       .  A
C480        N481   1.429       .  S
N481        O485   1.262       .  A
N481        O486   1.262       .  A
N484        O488   1.262       .  A
N484        O487   1.262       .  A
C489        C490   1.392   1_655  A
C489        C494   1.390       .  A
C489        H496   1.081       .  S
C490        C491   1.425       .  A
C491        C492   1.404   1_455  A
C491        N498   1.429       .  S
C492        C493   1.393       .  A
C492        H497   1.080       .  S
C493        C494   1.414       .  A
C494        N495   1.422       .  S
N495        O499   1.261       .  A
N495        O500   1.260       .  A
N498        O502   1.262       .  A
N498        O501   1.261       .  A
C503        C504   1.402       .  A
C503        C508   1.398   1_565  A
C503        H510   1.084       .  S
C504        C505   1.416       .  A
C505        C506   1.413   1_565  A
C505        N512   1.428       .  S
C506        C507   1.408       .  A
C506        H511   1.083       .  S
C507        C508   1.416       .  A
C508        N509   1.430       .  S
N509        O513   1.262       .  A
N509        O514   1.262       .  A
N512        O516   1.262       .  A
N512        O515   1.262       .  A
C517        C518   1.411       .  A
C517        C522   1.399       .  A
C517        H524   1.084       .  S
C518        C519   1.411       .  A
C519        C520   1.392       .  A
C519        N526   1.432       .  S
C520        C521   1.406       .  A
C520        H525   1.085       .  S
C521        C522   1.404       .  A
C522        N523   1.430       .  S
N523        O527   1.262       .  A
N523        O528   1.261       .  A
N526        O530   1.261       .  A
N526        O529   1.261       .  A
C531        C532   1.399       .  A
C531        C536   1.388       .  A
C531        H538   1.085       .  S
C532        C533   1.418       .  A
C533        C534   1.419       .  A
C533        N540   1.430       .  S
C534        C535   1.408       .  A
C534        H539   1.082       .  S
C535        C536   1.416       .  A
C536        N537   1.432       .  S
N537        O541   1.262       .  A
N537        O542   1.262       .  A
N540        O544   1.262       .  A
N540        O543   1.262       .  A
C545        C546   1.407       .  A
C545        C550   1.404       .  A
C545        H552   1.084       .  S
C546        C547   1.414       .  A
C547        C548   1.402       .  A
C547        N554   1.434       .  S
C548        C549   1.404       .  A
C548        H553   1.084       .  S
C549        C550   1.413       .  A
C550        N551   1.437       .  S
N551        O555   1.262       .  A
N551        O556   1.262       .  A
N554        O558   1.262       .  A
N554        O557   1.262       .  A
C559        C560   1.403       .  A
C559        C564   1.397   1_655  A
C559        H566   1.077       .  S
C560        C561   1.413       .  A
C561        C562   1.414   1_655  A
C561        N568   1.429       .  S
C562        C563   1.410       .  A
C562        H567   1.060       .  S
C563        C564   1.413       .  A
C564        N565   1.430       .  S
N565        O569   1.262       .  A
N565        O570   1.262       .  A
N568        O572   1.261       .  A
N568        O571   1.262   1_655  A
C573        C574   1.413       .  A
C573        C578   1.406       .  A
C573        H580   1.083       .  S
C574        C575   1.411       .  A
C575        C576   1.391       .  A
C575        N582   1.430       .  S
C576        C577   1.405       .  A
C576        H581   1.084       .  S
C577        C578   1.405       .  A
C578        N579   1.430       .  S
N579        O583   1.262       .  A
N579        O584   1.262       .  A
N582        O586   1.262       .  A
N582        O585   1.262       .  A
C587        C588   1.403       .  A
C587        C592   1.414       .  A
C587        H594   1.083       .  S
C588        C589   1.412       .  A
C589        C590   1.406       .  A
C589        N596   1.429       .  S
C590        C591   1.408       .  A
C590        H595   1.083       .  S
C591        C592   1.422       .  A
C592        N593   1.430       .  S
N593        O597   1.262       .  A
N593        O598   1.262       .  A
N596        O600   1.262       .  A
N596        O599   1.262       .  A
C601        C602   1.387       .  A
C601        C606   1.389       .  A
C601        H608   1.085       .  S
C602        C603   1.411       .  A
C603        C604   1.414       .  A
C603        N610   1.428       .  S
C604        C605   1.408       .  A
C604        H609   1.083       .  S
C605        C606   1.418       .  A
C606        N607   1.422       .  S
N607        O611   1.262       .  A
N607        O612   1.262       .  A
N610        O614   1.262       .  A
N610        O613   1.260       .  A
C615        C616   1.408       .  A
C615        C620   1.401       .  A
C615        H622   1.084       .  S
C616        C617   1.410       .  A
C617        C618   1.402       .  A
C617        N624   1.430       .  S
C618        C619   1.406       .  A
C618        H623   1.084   1_556  S
C619        C620   1.407       .  A
C620        N621   1.429       .  S
N621        O625   1.262       .  A
N621        O626   1.262       .  A
N624        O628   1.262       .  A
N624        O627   1.262       .  A
C629        C630   1.402       .  A
C629        C634   1.397       .  A
C629        H636   1.083       .  S
C630        C631   1.411       .  A
C631        C632   1.398       .  A
C631        N638   1.429       .  S
C632        C633   1.403       .  A
C632        H637   1.083       .  S
C633        C634   1.412       .  A
C634        N635   1.433       .  S
N635        O639   1.262       .  A
N635        O640   1.262       .  A
N638        O642   1.262       .  A
N638        O641   1.262       .  A
C643        C644   1.409       .  A
C643        C648   1.401       .  A
C643        H650   1.082       .  S
C644        C645   1.416       .  A
C645        C646   1.408       .  A
C645        N652   1.429       .  S
C646        C647   1.405       .  A
C646        H651   1.080       .  S
C647        C648   1.410       .  A
C648        N649   1.430       .  S
N649        O653   1.262       .  A
N649        O654   1.262       .  A
N652        O656   1.261       .  A
N652        O655   1.262   1_556  A
C657        C658   1.408       .  A
C657        C662   1.399   1_565  A
C657        H664   1.084       .  S
C658        C659   1.412       .  A
C659        C660   1.412   1_565  A
C659        N666   1.429       .  S
C660        C661   1.407       .  A
C660        H665   1.082       .  S
C661        C662   1.407       .  A
C662        N663   1.430       .  S
N663        O667   1.261       .  A
N663        O668   1.262       .  A
N666        O670   1.262       .  A
N666        O669   1.262       .  A
C671        C672   1.399       .  A
C671        C676   1.388       .  A
C671        H678   1.082       .  S
C672        C673   1.403       .  A
C673        C674   1.394       .  A
C673        N680   1.431       .  S
C674        C675   1.410       .  A
C674        H679   1.083       .  S
C675        C676   1.410       .  A
C676        N677   1.428       .  S
N677        O681   1.261       .  A
N677        O682   1.262       .  A
N680        O684   1.262       .  A
N680        O683   1.262       .  A
C685        C686   1.408       .  A
C685        C690   1.402       .  A
C685        H692   1.075       .  S
C686        C687   1.410       .  A
C687        C688   1.413       .  A
C687        N694   1.428       .  S
C688        C689   1.409       .  A
C688        H693   1.072       .  S
C689        C690   1.406       .  A
C690        N691   1.429       .  S
N691        O695   1.262       .  A
N691        O696   1.262       .  A
N694        O698   1.262       .  A
N694        O697   1.262       .  A
C699        C700   1.407       .  A
C699        C704   1.403       .  A
C699        H706   1.083       .  S
C700        C701   1.420       .  A
C701        C702   1.408       .  A
C701        N708   1.429   1_554  S
C702        C703   1.404       .  A
C702        H707   1.084       .  S
C703        C704   1.414       .  A
C704        N705   1.429       .  S
N705        O709   1.262       .  A
N705        O710   1.262       .  A
N708        O712   1.262       .  A
N708        O711   1.262       .  A
C713        C714   1.409       .  A
C713        C718   1.413   1_655  A
C713        H720   1.083       .  S
C714        C715   1.418       .  A
C715        C716   1.398   1_655  A
C715        N722   1.430       .  S
C716        C717   1.402       .  A
C716        H721   1.084       .  S
C717        C718   1.411       .  A
C718        N719   1.427       .  S
N719        O723   1.262   1_554  A
N719        O724   1.261       .  A
N722        O726   1.262       .  A
N722        O725   1.262       .  A
C727        C728   1.408       .  A
C727        C732   1.404   1_655  A
C727        H734   1.084       .  S
C728        C729   1.413   1_655  A
C729        C730   1.397       .  A
C729        N736   1.430   1_455  S
C730        C731   1.403       .  A
C730        H735   1.084       .  S
C731        C732   1.408       .  A
C732        N733   1.428       .  S
N733        O737   1.262       .  A
N733        O738   1.262   1_455  A
N736        O740   1.262       .  A
N736        O739   1.262   1_655  A
C741        C742   1.404       .  A
C741        C746   1.413   1_545  A
C741        H748   1.084       .  S
C742        C743   1.412       .  A
C743        C744   1.398   1_545  A
C743        N750   1.430       .  S
C744        C745   1.404       .  A
C744        H749   1.084       .  S
C745        C746   1.419       .  A
C746        N747   1.431       .  S
N747        O751   1.262       .  A
N747        O752   1.262       .  A
N750        O754   1.262       .  A
N750        O753   1.262       .  A
C755        C756   1.410       .  A
C755        C760   1.395       .  A
C755        H762   1.083       .  S
C756        C757   1.406       .  A
C757        C758   1.390       .  A
C757        N764   1.431       .  S
C758        C759   1.403       .  A
C758        H763   1.083       .  S
C759        C760   1.402       .  A
C760        N761   1.430       .  S
N761        O765   1.262       .  A
N761        O766   1.262       .  A
N764        O768   1.262       .  A
N764        O767   1.262       .  A
