geometry optimzed in LAMMPS
_audit_creation_date              2020-12-01 
_audit_creation_method            'lammps2cif' 
_symmetry_space_group_name_H-M    'P1' 
_symmetry_Int_Tables_number       1 
_symmetry_cell_setting            triclinic 
loop_ 
_symmetry_equiv_pos_as_xyz 
  x,y,z 
_cell_length_a                    46.72054116 
_cell_length_b                    48.97209254873323 
_cell_length_c                    37.88335916451637 
_cell_angle_alpha                 90.645809845962 
_cell_angle_beta                  89.89400921224535 
_cell_angle_gamma                 120.070383077861 
loop_ 
_atom_site_label 
_atom_site_type_symbol 
_atom_site_fract_x 
_atom_site_fract_y 
_atom_site_fract_z 
_atom_site_charge 
O1          O  0.29004180  0.18743650  0.30690690    -0.82500
C2          C  0.36894428  0.19590394  0.41630924     0.96800
O3          O  0.35242121  0.17609259  0.39233055    -0.71700
O4          O  0.30534557  0.14802232  0.34523302    -0.75300
Al5        Al  0.34646868  0.18666822  0.34611648     1.49000
C6          C  0.27819003  0.13933004  0.36039292     0.92100
O7          O  0.28165678  0.21326680  0.40083300    -0.81500
O8          O  0.34215672  0.27199345  0.37054139    -0.75000
Al9        Al  0.28970651  0.20101775  0.35461392     1.90100
O10         O  0.32998255  0.23286692  0.42666068    -0.74100
O11         O  0.39223767  0.26272367  0.35338747    -0.74000
O12         O  0.37910731  0.22508090  0.41235057    -0.79600
O13         O  0.39215651  0.21881664  0.34315618    -0.77800
O14         O  0.33147042  0.21124346  0.36293481    -1.13900
O15         O  0.34040277  0.19509171  0.29882607    -0.73100
C16         C  0.31273290  0.18958460  0.28658568     0.97600
C17         C  0.29960421  0.22327721  0.42824104     0.94000
Al18       Al  0.35852324  0.24536966  0.38840049     1.55600
O19         O  0.27124702  0.15936005  0.37235524    -0.77800
C20         C  0.40744832  0.24860975  0.34428590     0.98100
C21         C  0.32029181  0.26746055  0.34784058     0.93000
O22         O  0.30154617  0.24029763  0.33545821    -0.83100
O23         O  0.22048090  0.30125189  0.70403342    -0.82500
C24         C  0.25055511  0.37552160  0.58272741     0.96800
O25         O  0.23276870  0.37579769  0.60784622    -0.71700
O26         O  0.18105949  0.32504700  0.62958023    -0.75300
Al27       Al  0.22092878  0.35518702  0.65267795     1.49000
C28         C  0.16465542  0.29599626  0.63527509     0.92100
O29         O  0.22345664  0.28234470  0.60767218    -0.81500
O30         O  0.30188069  0.34203747  0.66632698    -0.75000
Al31       Al  0.22296252  0.29336968  0.65572589     1.90100
O32         O  0.27635468  0.31637919  0.60001028    -0.74100
O33         O  0.29905710  0.39435398  0.64793539    -0.74000
O34         O  0.27024019  0.36528032  0.58665811    -0.79600
O35         O  0.25622347  0.38952698  0.67644404    -0.77800
O36         O  0.24251611  0.33424966  0.64543194    -1.13900
O37         O  0.20559418  0.33736633  0.69898642    -0.73100
C38         C  0.20953910  0.31795266  0.71750338     0.97600
C39         C  0.24975102  0.29201580  0.59024651     0.94000
Al40       Al  0.28342553  0.35302098  0.62715434     1.55600
O41         O  0.17853255  0.28249758  0.64895551    -0.77800
C42         C  0.28586143  0.40614043  0.66723455     0.98100
C43         C  0.29140958  0.31344799  0.67395520     0.93000
O44         O  0.26222557  0.29269206  0.66606437    -0.83100
O45         O  0.40524953  0.20285588  0.64101063    -0.82500
C46         C  0.35895414  0.12219584  0.75137050     0.96800
O47         O  0.34859545  0.13582196  0.73110523    -0.71700
O48         O  0.35311897  0.17940383  0.68718380    -0.75300
Al49       Al  0.36055718  0.14430460  0.68272209     1.49000
C50         C  0.36909208  0.20595298  0.70253157     0.92100
O51         O  0.45473017  0.21797772  0.72543544    -0.81500
O52         O  0.46323845  0.16771284  0.68996941    -0.75000
Al53       Al  0.42729591  0.20641521  0.68432494     1.90100
O54         O  0.43704566  0.17316905  0.75289293    -0.74100
O55         O  0.40766448  0.11375568  0.67748391    -0.74000
O56         O  0.38362941  0.11933377  0.74291667    -0.79600
O57         O  0.35644597  0.10324363  0.67653512    -0.77800
O58         O  0.40334212  0.16540014  0.69376761    -1.13900
O59         O  0.37050580  0.15196340  0.63338917    -0.73100
C60         C  0.38826321  0.17938374  0.62084827     0.97600
C61         C  0.45399670  0.20276694  0.75236634     0.94000
Al62       Al  0.42147831  0.14517723  0.71398572     1.55600
O63         O  0.39918159  0.21707925  0.71006892    -0.77800
C64         C  0.37741998  0.09439230  0.67244206     0.98100
C65         C  0.47436078  0.18862299  0.66639222     0.93000
O66         O  0.45840017  0.20179011  0.65726661    -0.83100
O67         O  0.10759464  0.29264613  0.03969170    -0.82500
C68         C  0.15112764  0.26712975  0.91583158     0.96800
O69         O  0.15998475  0.29005263  0.93711300    -0.71700
O70         O  0.15391101  0.32557327  0.98541088    -0.75300
Al71       Al  0.15347222  0.28642542  0.98675344     1.49000
C72         C  0.13295308  0.33315048  0.97623203     0.92100
O73         O  0.05142681  0.25605474  0.95980744    -0.81500
O74         O  0.05468458  0.20182345  0.98605883    -0.75000
Al75       Al  0.08254393  0.27346118  0.99807092     1.90100
O76         O  0.07287484  0.23494312  0.92479229    -0.74100
O77         O  0.11634486  0.20951250  0.99002924    -0.74000
O78         O  0.13069981  0.23924541  0.92522691    -0.79600
O79         O  0.16395473  0.25350788  0.98919425    -0.77800
O80         O  0.11016657  0.26134859  0.98129336    -1.13900
O81         O  0.15008010  0.28495545  0.03698877    -0.73100
C82         C  0.13112216  0.29142788  0.05457880     0.97600
C83         C  0.05251765  0.24417236  0.93045780     0.94000
Al84       Al  0.09490352  0.22439032  0.95871358     1.55600
O85         O  0.10279318  0.31255798  0.97358150    -0.77800
C86         C  0.14745666  0.22406667  0.99387557     0.98100
C87         C  0.04346387  0.20921020  0.01269907     0.93000
O88         O  0.05886157  0.23681934  0.02512442    -0.83100
O89         O  0.29708981  0.07576406  0.96396033    -0.82500
C90         C  0.28877387  0.13185562  0.08702782     0.96800
O91         O  0.30939036  0.13755416  0.06272498    -0.71700
O92         O  0.33975647  0.12691562  0.01114804    -0.75300
Al93       Al  0.29801566  0.12544526  0.01505071     1.49000
C94         C  0.34939784  0.10815581  0.02031303     0.92100
O95         O  0.27432521  0.03331467  0.05369403    -0.81500
O96         O  0.21294374  0.03092343  0.03522197    -0.75000
Al97       Al  0.28472645  0.05714574  0.01018081     1.90100
O98         O  0.25768964  0.05868650  0.08882385    -0.74100
O99         O  0.21782861  0.08741770  0.02355935    -0.74000
O100        O  0.25848653  0.11172200  0.08240831    -0.79600
O101        O  0.26185674  0.13393055  0.01640022    -0.77800
O102        O  0.27398993  0.08504718  0.02644101    -1.13900
O103        O  0.28909164  0.11642771  0.96644251    -0.73100
C104        C  0.29443245  0.09740133  0.94878952     0.97600
C105        C  0.26760774  0.03931137  0.08427156     0.94000
Al106      Al  0.23942848  0.07307507  0.05488200     1.55600
O107        O  0.32884878  0.07989407  0.02705205    -0.77800
C108        C  0.23065507  0.11636344  0.01630479     0.98100
C109        C  0.21623447  0.01698060  0.00853355     0.93000
O110        O  0.24241810  0.03028750  0.99082186    -0.83100
O111        O  0.22015670  0.39478755  0.36686077    -0.82500
C112        C  0.13671327  0.34223269  0.25502772     0.96800
O113        O  0.15231609  0.33437581  0.27602397    -0.71700
O114        O  0.19847579  0.34227370  0.32161352    -0.75300
Al115      Al  0.16024413  0.34678739  0.32417206     1.49000
C116        C  0.22613631  0.35833721  0.30708866     0.92100
O117        O  0.23179182  0.43519604  0.27750224    -0.81500
O118        O  0.17638488  0.44250263  0.31421960    -0.75000
Al119      Al  0.22216334  0.41251690  0.32124709     1.90100
O120        O  0.18304740  0.41621093  0.25239772    -0.74100
O121        O  0.12220168  0.38671197  0.32817634    -0.74000
O122        O  0.12970466  0.36335684  0.26352686    -0.79600
O123        O  0.11640020  0.33972016  0.32971156    -0.77800
O124        O  0.17929528  0.38716055  0.31237548    -1.13900
O125        O  0.16778772  0.35763191  0.37275368    -0.73100
C126        C  0.19591354  0.37638076  0.38608186     0.97600
C127        C  0.21404780  0.43178985  0.25080823     0.94000
Al128      Al  0.15494018  0.40118464  0.29154778     1.55600
O129        O  0.23600512  0.38632444  0.29839963    -0.77800
C130        C  0.10433865  0.35752529  0.33376518     0.98100
C131        C  0.19951787  0.45533909  0.33673693     0.93000
O132        O  0.21545733  0.44211256  0.34543101    -0.83100
C133        C  0.26945809  0.02281058  0.11551174    -0.06000
C134        C  0.28473916  0.04035524  0.14625761    -0.05900
C135        C  0.28039115  0.02532689  0.17853636    -0.24100
C136        C  0.25965308  0.49394961  0.18236848     0.18100
C137        C  0.24768265  0.47575821  0.15086380     0.15400
C138        C  0.25390913  0.49089924  0.11810303    -0.19100
C139        C  0.22757807  0.44290907  0.15290808    -0.20900
C140        C  0.21784811  0.42846844  0.18575719    -0.13500
C141        C  0.22903835  0.44646465  0.21703960     0.03200
C142        C  0.25087493  0.47905097  0.21528676    -0.25600
H143        H  0.29896563  0.06588868  0.14547218     0.08300
H144        H  0.29174430  0.03949941  0.20205203     0.11900
H145        H  0.24331030  0.47712885  0.09413478     0.11800
H146        H  0.21801846  0.42857844  0.12914552     0.11500
H147        H  0.20079160  0.40327636  0.18681865     0.12100
H148        H  0.25892408  0.49301752  0.23946994     0.14000
C149        C  0.12796637  0.32815866  0.21942740    -0.06000
C150        C  0.10201601  0.32816733  0.20084480    -0.05900
C151        C  0.09678662  0.31956361  0.16525988    -0.24100
C152        C  0.11786035  0.31143435  0.14755343     0.18100
C153        C  0.14362811  0.31065807  0.16612049     0.15400
C154        C  0.14821259  0.31857904  0.20218194    -0.19100
C155        C  0.16498371  0.30304336  0.14796983    -0.20900
C156        C  0.16112832  0.29673690  0.11161179    -0.13500
C157        C  0.13576082  0.29781736  0.09297219     0.03200
C158        C  0.11401814  0.30486113  0.11135303    -0.25600
H159        H  0.08625687  0.33558703  0.21367810     0.08300
H160        H  0.07688356  0.32020545  0.15132409     0.11900
H161        H  0.16865324  0.31904841  0.21627274     0.11800
H162        H  0.18491658  0.30238143  0.16179401     0.11500
H163        H  0.17803106  0.29116154  0.09808762     0.12100
H164        H  0.09419773  0.30567679  0.09742538     0.14000
C165        C  0.14441477  0.36680282  0.97083749    -0.06000
C166        C  0.16955004  0.38383839  0.94636880    -0.05900
C167        C  0.18578328  0.41680852  0.94611368    -0.24100
C168        C  0.17789919  0.43330560  0.97120026     0.18100
C169        C  0.15200680  0.41632116  0.99537487     0.15400
C170        C  0.13495935  0.38308182  0.99458833    -0.19100
C171        C  0.14504469  0.43287872  0.02126912    -0.20900
C172        C  0.16459540  0.46576905  0.02436465    -0.13500
C173        C  0.19122679  0.48283730  0.00132595     0.00200
C174        C  0.19690149  0.46637210  0.97395875    -0.25600
H175        H  0.17742334  0.37159543  0.92829573     0.08300
H176        H  0.20564005  0.42942479  0.92746998     0.11900
H177        H  0.11614881  0.36996104  0.01414025     0.11800
H178        H  0.12539736  0.42027297  0.04013538     0.11500
H179        H  0.15980974  0.47766481  0.04587416     0.12100
H180        H  0.21750857  0.47903749  0.95614783     0.14000
C181        C  0.20960352  0.13075493  0.01032367    -0.06000
C182        C  0.17508038  0.11218959  0.00627034    -0.05900
C183        C  0.15550090  0.12637571  0.00291877    -0.24100
C184        C  0.17002156  0.15939917  0.00405277     0.18100
C185        C  0.20466878  0.17810995  0.00841001     0.15400
C186        C  0.22410866  0.16379117  0.01116047    -0.19100
C187        C  0.21949522  0.21096663  0.01013921    -0.20900
C188        C  0.20040226  0.22534960  0.00687448    -0.13500
C189        C  0.16593852  0.20733046  0.00158431     0.03200
C190        C  0.15075856  0.17412896  0.00062512    -0.25600
H191        H  0.16319682  0.08669398  0.00585310     0.08300
H192        H  0.12899407  0.11151245  0.99969337     0.11900
H193        H  0.25061934  0.17852071  0.01475946     0.11800
H194        H  0.24600595  0.22564458  0.01369727     0.11500
H195        H  0.21294548  0.25088320  0.00777207     0.12100
H196        H  0.12430000  0.15988881  0.99639052     0.14000
C197        C  0.38498054  0.11894031  0.02066406    -0.06000
C198        C  0.39756666  0.10566440  0.99660629    -0.05900
C199        C  0.43171101  0.11851013  0.99287036    -0.24100
C200        C  0.45377002  0.14457432  0.01356435     0.18100
C201        C  0.44115080  0.15676397  0.03946008     0.15400
C202        C  0.40678642  0.14409766  0.04257534    -0.19100
C203        C  0.46316023  0.18238750  0.06059099    -0.20900
C204        C  0.49714231  0.19745391  0.05420595    -0.13500
C205        C  0.00984080  0.18733742  0.02641792     0.03200
C206        C  0.48804523  0.15982227  0.00733416    -0.25600
H207        H  0.38094290  0.08627613  0.97949750     0.08300
H208        H  0.44085154  0.10870466  0.97302843     0.11900
H209        H  0.39701179  0.15426343  0.06127534     0.11800
H210        H  0.45400427  0.19175462  0.08093822     0.11500
H211        H  0.01326181  0.21844488  0.06952624     0.12100
H212        H  0.49735889  0.15171650  0.98582451     0.14000
C213        C  0.02904603  0.23971200  0.90256373    -0.06000
C214        C  0.99496489  0.22145163  0.90864935    -0.05900
C215        C  0.47270477  0.21228915  0.88043092    -0.24100
C216        C  0.48442684  0.22176526  0.84604194     0.18100
C217        C  0.01868594  0.24194353  0.84030987     0.15400
C218        C  0.04080213  0.25046179  0.86860721    -0.19100
C219        C  0.03040279  0.25208366  0.80612690    -0.20900
C220        C  0.00858092  0.24100129  0.77753817    -0.13500
C221        C  0.47499548  0.21928227  0.78280388     0.03200
C222        C  0.46280158  0.21026071  0.81709850    -0.25600
H223        H  0.98577182  0.21284551  0.93486445     0.08300
H224        H  0.44653480  0.19702802  0.88530422     0.11900
H225        H  0.06722069  0.26458788  0.86414256     0.11800
H226        H  0.05653309  0.26769912  0.80139065     0.11500
H227        H  0.01824506  0.24784287  0.75108947     0.12100
H228        H  0.43678403  0.19345928  0.82102230     0.14000
C229        C  0.29937987  0.10161743  0.91020488    -0.06000
C230        C  0.29339143  0.12342992  0.89260427    -0.05900
C231        C  0.30135730  0.12996835  0.85695322    -0.24100
C232        C  0.31584967  0.11511366  0.83835712     0.18100
C233        C  0.32114566  0.09252712  0.85557497     0.15400
C234        C  0.31250907  0.08564912  0.89117617    -0.19100
C235        C  0.33626279  0.07812314  0.83732918    -0.20900
C236        C  0.34737669  0.08699691  0.80288165    -0.13500
C237        C  0.34307021  0.11002776  0.78580769     0.03200
C238        C  0.32641251  0.12339258  0.80336188    -0.25600
H239        H  0.28316594  0.13597274  0.90660570     0.08300
H240        H  0.29706664  0.14732129  0.84421910     0.11900
H241        H  0.31740674  0.06888631  0.90443675     0.11800
H242        H  0.34045792  0.06071956  0.85008476     0.11500
H243        H  0.36001042  0.07628293  0.78979245     0.12100
H244        H  0.32328304  0.14142307  0.79051853     0.14000
C245        C  0.20062465  0.31406121  0.75533952    -0.06000
C246        C  0.19852317  0.33780515  0.77428121    -0.05900
C247        C  0.18991651  0.33391801  0.81001185    -0.24100
C248        C  0.18266234  0.30596494  0.82724093     0.18100
C249        C  0.18437522  0.28178988  0.80831059     0.15400
C250        C  0.19375773  0.28616312  0.77268787    -0.19100
C251        C  0.17607506  0.25341585  0.82515567    -0.20900
C252        C  0.16564344  0.24881771  0.86028187    -0.13500
C253        C  0.16410060  0.27277728  0.87942920     0.03200
C254        C  0.17304913  0.30149538  0.86283725    -0.25600
H255        H  0.20379554  0.35950323  0.76150937     0.08300
H256        H  0.18857867  0.35263838  0.82407206     0.11900
H257        H  0.19496395  0.26751430  0.75824810     0.11800
H258        H  0.17710774  0.23457466  0.81098791     0.11500
H259        H  0.15874878  0.22648181  0.87253091     0.12100
H260        H  0.17138587  0.31990873  0.87725420     0.14000
C261        C  0.12856221  0.27764828  0.62854623    -0.06000
C262        C  0.11107807  0.29256841  0.61776058    -0.05900
C263        C  0.07646147  0.27627772  0.61824156    -0.24100
C264        C  0.05888826  0.24502902  0.63010513     0.18100
C265        C  0.07620924  0.22927313  0.63885203     0.15400
C266        C  0.11080975  0.24545510  0.63728360    -0.19100
C267        C  0.05885807  0.19834509  0.65156964    -0.20900
C268        C  0.02501610  0.18408802  0.65843095    -0.13500
C269        C  0.00785331  0.20022333  0.65182092     0.03200
C270        C  0.02466849  0.23010060  0.63588285    -0.25600
H271        H  0.12413686  0.31723646  0.61062228     0.08300
H272        H  0.06353315  0.28865862  0.61120356     0.11900
H273        H  0.12393540  0.23351800  0.64537741     0.11800
H274        H  0.07180118  0.18588297  0.65817677     0.11500
H275        H  0.01259722  0.16103161  0.67044101     0.12100
H276        H  0.01175716  0.24288846  0.63071668     0.14000
C277        C  0.30344932  0.44049574  0.67633662    -0.06000
C278        C  0.28876511  0.45197294  0.70029752    -0.05900
C279        C  0.30008989  0.48425174  0.70352349    -0.24100
C280        C  0.32652075  0.50597834  0.68296676     0.18100
C281        C  0.34280046  0.49520028  0.66009501     0.15400
C282        C  0.33118463  0.46248243  0.65690836    -0.19100
C283        C  0.37089777  0.01790181  0.63859012    -0.20900
C284        C  0.38167762  0.05022688  0.64256491    -0.13500
C285        C  0.36588270  0.06046899  0.66641852     0.03200
C286        C  0.33991801  0.03804467  0.68715787    -0.25600
H287        H  0.26740954  0.43580098  0.71556281     0.08300
H288        H  0.28759790  0.49215505  0.72152254     0.11900
H289        H  0.34262816  0.45412296  0.63807249     0.11800
H290        H  0.38302992  0.01053645  0.61947338     0.11500
H291        H  0.40207099  0.06719671  0.62675875     0.12100
H292        H  0.32817936  0.04586522  0.70632443     0.14000
C293        C  0.35245578  0.22441666  0.70928095    -0.06000
C294        C  0.31836661  0.20836121  0.71601466    -0.05900
C295        C  0.30064922  0.22430119  0.71567147    -0.24100
C296        C  0.31655883  0.25645550  0.70757065     0.18100
C297        C  0.35113255  0.27338020  0.70243196     0.15400
C298        C  0.36909542  0.25731309  0.70411055    -0.19100
C299        C  0.36653801  0.30543508  0.69325807    -0.20900
C300        C  0.34752441  0.31975295  0.68644730    -0.13500
C301        C  0.31292436  0.30234693  0.68937961     0.03200
C302        C  0.29796244  0.27122252  0.70189839    -0.25600
H303        H  0.30518051  0.18312618  0.72023874     0.08300
H304        H  0.27413349  0.21105719  0.71978580     0.11900
H305        H  0.39538465  0.26980644  0.69853164     0.11800
H306        H  0.39305891  0.31890092  0.68935318     0.11500
H307        H  0.35964151  0.34370807  0.67686125     0.12100
H308        H  0.27128196  0.25752900  0.70467895     0.14000
C309        C  0.24695336  0.38512302  0.54726490    -0.06000
C310        C  0.27428125  0.39884556  0.52455412    -0.05900
C311        C  0.26992825  0.40188867  0.48868643    -0.24100
C312        C  0.23802411  0.39031759  0.47492887     0.18100
C313        C  0.21049406  0.37724922  0.49783481     0.15400
C314        C  0.21524159  0.37547388  0.53405902    -0.19100
C315        C  0.17850814  0.36461000  0.48389785    -0.20900
C316        C  0.17375724  0.36416870  0.44747946    -0.13500
C317        C  0.20092572  0.37689130  0.42452104     0.03200
C318        C  0.23309585  0.39045431  0.43850158    -0.25600
H319        H  0.29889677  0.40619143  0.53440620     0.08300
H320        H  0.29125972  0.41193902  0.47152886     0.11900
H321        H  0.19407972  0.36427712  0.55141527     0.11800
H322        H  0.15718271  0.35444159  0.50104422     0.11500
H323        H  0.14877500  0.35393049  0.43726466     0.12100
H324        H  0.25420696  0.40022891  0.42100912     0.14000
C325        C  0.44382832  0.26610072  0.33847310    -0.06000
C326        C  0.45957145  0.24894056  0.32933842    -0.05900
C327        C  0.49392004  0.26347170  0.32846128    -0.24100
C328        C  0.01351509  0.29566598  0.33633391     0.18100
C329        C  0.99841948  0.31366502  0.34483643     0.15400
C330        C  0.46353114  0.29872030  0.34604020    -0.19100
C331        C  0.01862565  0.34618018  0.35188210    -0.20900
C332        C  0.05326628  0.36070126  0.34949075    -0.13500
C333        C  0.06829845  0.34280087  0.34089171     0.03200
C334        C  0.04803415  0.31011902  0.33507651    -0.25600
H335        H  0.44529329  0.22386411  0.32367589     0.08300
H336        H  0.50518711  0.24941310  0.32171491     0.11900
H337        H  0.45184463  0.31224361  0.35353302     0.11800
H338        H  0.00762934  0.36048974  0.35848004     0.11500
H339        H  0.06823350  0.38592682  0.35382809     0.12100
H340        H  0.05906115  0.29591760  0.32795245     0.14000
C341        C  0.31397866  0.29309319  0.33723531    -0.06000
C342        C  0.32736513  0.32163453  0.35641520    -0.05900
C343        C  0.31568950  0.34265858  0.35090328    -0.24100
C344        C  0.29006936  0.33520966  0.32654050     0.18100
C345        C  0.27768443  0.30731758  0.30591807     0.15400
C346        C  0.29017050  0.28691114  0.31087291    -0.19100
C347        C  0.25130480  0.29903516  0.28244956    -0.20900
C348        C  0.23577921  0.31704199  0.28118491    -0.13500
C349        C  0.24712956  0.34416173  0.30236344     0.03200
C350        C  0.27504095  0.35388076  0.32410289    -0.25600
H351        H  0.34560612  0.32695079  0.37691700     0.08300
H352        H  0.32551279  0.36393670  0.36694857     0.11900
H353        H  0.27960415  0.26505691  0.29574243     0.11800
H354        H  0.24148543  0.27766848  0.26655221     0.11500
H355        H  0.21400892  0.30911149  0.26474041     0.12100
H356        H  0.28327066  0.37444586  0.34111742     0.14000
C357        C  0.25443168  0.10539373  0.36214773    -0.06000
C358        C  0.22437632  0.09238580  0.34359826    -0.05900
C359        C  0.20548042  0.05970729  0.33784822    -0.24100
C360        C  0.21637817  0.03969473  0.35081936     0.18100
C361        C  0.24553690  0.05272571  0.37160245     0.15400
C362        C  0.26444662  0.08544016  0.37688792    -0.19100
C363        C  0.25638934  0.03305905  0.38514834    -0.20900
C364        C  0.23992147  0.00111260  0.37626486    -0.13500
C365        C  0.21099010  0.48744557  0.35138647     0.03200
C366        C  0.19989034  0.00732929  0.34175451    -0.25600
H367        H  0.21665615  0.10765321  0.33163204     0.08300
H368        H  0.18314569  0.05026269  0.32202715     0.11900
H369        H  0.28784115  0.09558612  0.39097635     0.11800
H370        H  0.27843391  0.04260883  0.40148836     0.11500
H371        H  0.24729714  0.48601272  0.38603257     0.12100
H372        H  0.17871378  0.99766425  0.32411706     0.14000
C373        C  0.30565039  0.18354763  0.24842183    -0.06000
C374        C  0.27473584  0.17700004  0.23508447    -0.05900
C375        C  0.26596070  0.16726705  0.20010914    -0.24100
C376        C  0.28794974  0.16393098  0.17781050     0.18100
C377        C  0.31971307  0.17187236  0.19040752     0.15400
C378        C  0.32840921  0.18172518  0.22560942    -0.19100
C379        C  0.34180488  0.16881324  0.16788650    -0.20900
C380        C  0.33212543  0.15705801  0.13357913    -0.13500
C381        C  0.30013013  0.14790319  0.12144175     0.03200
C382        C  0.27830760  0.15184980  0.14348753    -0.25600
H383        H  0.25682228  0.17845939  0.25199660     0.08300
H384        H  0.24165160  0.16156655  0.19077689     0.11900
H385        H  0.35236858  0.18681719  0.23551152     0.11800
H386        H  0.36626535  0.17483946  0.17703914     0.11500
H387        H  0.34921105  0.15394036  0.11698553     0.12100
H388        H  0.25362971  0.14492824  0.13415576     0.14000
C389        C  0.28668890  0.22629592  0.46276348    -0.06000
C390        C  0.30491339  0.22846518  0.49325334    -0.05900
C391        C  0.29965222  0.23989257  0.52489474    -0.24100
C392        C  0.27588595  0.24918380  0.52675664     0.18100
C393        C  0.25525600  0.24449376  0.49726684     0.15400
C394        C  0.26066499  0.23281852  0.46529382    -0.19100
C395        C  0.23093265  0.25326897  0.49988291    -0.20900
C396        C  0.22818005  0.26777279  0.53080181    -0.13500
C397        C  0.25008154  0.27413438  0.55909430     0.03200
C398        C  0.27341742  0.26428138  0.55721321    -0.25600
H399        H  0.32475677  0.22309116  0.49208210     0.08300
H400        H  0.31521118  0.24279361  0.54745408     0.11900
H401        H  0.24649586  0.23121070  0.44194091     0.11800
H402        H  0.21467522  0.24967378  0.47777731     0.11500
H403        H  0.20988103  0.27515690  0.53213892     0.12100
H404        H  0.28999669  0.26885198  0.57934709     0.14000
C405        C  0.39027270  0.18535375  0.58250568    -0.06000
C406        C  0.41163771  0.21625162  0.57073683    -0.05900
C407        C  0.41427676  0.22337430  0.53513786    -0.24100
C408        C  0.39540613  0.19985580  0.51039684     0.18100
C409        C  0.37456705  0.16841919  0.52136067     0.15400
C410        C  0.37226264  0.16123316  0.55752571    -0.19100
C411        C  0.35559327  0.14517916  0.49600495    -0.20900
C412        C  0.35551597  0.15356757  0.46076363    -0.13500
C413        C  0.37472323  0.18522980  0.45043014     0.03200
C414        C  0.39580663  0.20786204  0.47510984    -0.25600
H415        H  0.42632750  0.23530041  0.58913990     0.08300
H416        H  0.43046144  0.24752181  0.52706935     0.11900
H417        H  0.35606850  0.13728107  0.56619095     0.11800
H418        H  0.33967743  0.12088408  0.50369277     0.11500
H419        H  0.33901610  0.13564566  0.44212148     0.12100
H420        H  0.41097557  0.23228720  0.46738132     0.14000
O421        O  0.29035009  0.68846949  0.30578769    -0.82500
C422        C  0.36879801  0.69753402  0.41587824     0.96800
O423        O  0.35251877  0.67722800  0.39214428    -0.71700
O424        O  0.30592254  0.64831305  0.34406822    -0.75300
Al425      Al  0.34669692  0.68721640  0.34549026     1.49000
C426        C  0.27833065  0.63915575  0.35827386     0.92100
O427        O  0.28123340  0.71170221  0.40116422    -0.81500
O428        O  0.34271242  0.77287473  0.36737166    -0.75000
Al429      Al  0.28926758  0.70078070  0.35408380     1.90100
O430        O  0.33081086  0.73548708  0.42471030    -0.74100
O431        O  0.39199200  0.76303291  0.35088151    -0.74000
O432        O  0.37922306  0.72665264  0.41095310    -0.79600
O433        O  0.39254482  0.71928988  0.34242880    -0.77800
O434        O  0.33138002  0.71175077  0.36183773    -1.13900
O435        O  0.34058893  0.69532176  0.29820089    -0.73100
C436        C  0.31317746  0.69040353  0.28571925     0.97600
C437        C  0.30014488  0.72358885  0.42770306     0.94000
Al438      Al  0.35875808  0.74658949  0.38622136     1.55600
O439        O  0.27114650  0.65883558  0.37064242    -0.77800
C440        C  0.40744119  0.74905551  0.34242087     0.98100
C441        C  0.31960831  0.76757269  0.34616068     0.93000
O442        O  0.29963269  0.73995794  0.33603217    -0.83100
O443        O  0.22292281  0.80164525  0.70625870    -0.82500
C444        C  0.25144721  0.87275218  0.58253498     0.96800
O445        O  0.23431563  0.87399154  0.60787142    -0.71700
O446        O  0.18295293  0.82434015  0.63219298    -0.75300
Al447      Al  0.22336011  0.85481634  0.65375496     1.49000
C448        C  0.16652299  0.79535484  0.63816959     0.92100
O449        O  0.22545935  0.78075123  0.61058857    -0.81500
O450        O  0.30425487  0.84243008  0.66762680    -0.75000
Al451      Al  0.22519392  0.79291481  0.65825455     1.90100
O452        O  0.27827658  0.81444416  0.60229848    -0.74100
O453        O  0.30125146  0.89402433  0.64670266    -0.74000
O454        O  0.27115936  0.86254568  0.58668668    -0.79600
O455        O  0.25914751  0.88961709  0.67620783    -0.77800
O456        O  0.24461329  0.83355207  0.64682464    -1.13900
O457        O  0.20900020  0.83837846  0.70092107    -0.73100
C458        C  0.21271288  0.81893135  0.71965732     0.97600
C459        C  0.25164102  0.78984977  0.59312447     0.94000
Al460      Al  0.28526819  0.85189629  0.62779420     1.55600
O461        O  0.18054655  0.78176410  0.65134481    -0.77800
C462        C  0.28855296  0.90608903  0.66629825     0.98100
C463        C  0.29392355  0.81417087  0.67663142     0.93000
O464        O  0.26477306  0.79296985  0.66915068    -0.83100
O465        O  0.40627968  0.70401351  0.64156150    -0.82500
C466        C  0.35877542  0.62192963  0.75088767     0.96800
O467        O  0.34875001  0.63616847  0.73115683    -0.71700
O468        O  0.35408173  0.68070502  0.68841129    -0.75300
Al469      Al  0.36056982  0.64518265  0.68273985     1.49000
C470        C  0.37064892  0.70696821  0.70415385     0.92100
O471        O  0.45545488  0.71686363  0.72578253    -0.81500
O472        O  0.46293023  0.66677364  0.68952416    -0.75000
Al473      Al  0.42817128  0.70648220  0.68471178     1.90100
O474        O  0.43667697  0.67158173  0.75257122    -0.74100
O475        O  0.40657994  0.61351622  0.67583656    -0.74000
O476        O  0.38283743  0.61838011  0.74165075    -0.79600
O477        O  0.35563151  0.60387591  0.67545564    -0.77800
O478        O  0.40344136  0.66542285  0.69350812    -1.13900
O479        O  0.37013513  0.65348605  0.63345234    -0.73100
C480        C  0.38801598  0.68104347  0.62130249     0.97600
C481        C  0.45429285  0.70113491  0.75240724     0.94000
Al482      Al  0.42087950  0.64429872  0.71306702     1.55600
O483        O  0.40075764  0.71757762  0.71106835    -0.77800
C484        C  0.37618333  0.59452901  0.67102674     0.98100
C485        C  0.47469115  0.68819204  0.66653489     0.93000
O486        O  0.45892695  0.70152684  0.65724082    -0.83100
O487        O  0.10727980  0.79346629  0.04023356    -0.82500
C488        C  0.15325626  0.76798586  0.91779951     0.96800
O489        O  0.16169101  0.79086036  0.93898333    -0.71700
O490        O  0.15453547  0.82635545  0.98605300    -0.75300
Al491      Al  0.15433396  0.78746205  0.98840744     1.49000
C492        C  0.13361636  0.83384288  0.97651483     0.92100
O493        O  0.05247148  0.75638965  0.95951003    -0.81500
O494        O  0.05584884  0.70247087  0.98673582    -0.75000
Al495      Al  0.08294384  0.77406458  0.99829334     1.90100
O496        O  0.07463574  0.73534874  0.92542025    -0.74100
O497        O  0.11747887  0.71056711  0.99221243    -0.74000
O498        O  0.13271240  0.74009680  0.92710287    -0.79600
O499        O  0.16500146  0.75464246  0.99208963    -0.77800
O500        O  0.11107971  0.76216585  0.98239578    -1.13900
O501        O  0.15038808  0.78665034  0.03834724    -0.73100
C502        C  0.13128566  0.79329458  0.05534434     0.97600
C503        C  0.05390520  0.74422645  0.93049133     0.94000
Al504      Al  0.09639620  0.72517347  0.96004962     1.55600
O505        O  0.10345303  0.81322280  0.97378399    -0.77800
C506        C  0.14849643  0.72518783  0.99679105     0.98100
C507        C  0.04396277  0.70966477  0.01292599     0.93000
O508        O  0.05879553  0.73733190  0.02529673    -0.83100
O509        O  0.29673153  0.57497634  0.96390940    -0.82500
C510        C  0.28926140  0.63169085  0.08663811     0.96800
O511        O  0.30975715  0.63731810  0.06218204    -0.71700
O512        O  0.33970609  0.62662793  0.00993080    -0.75300
Al513      Al  0.29790656  0.62500366  0.01454616     1.49000
C514        C  0.34966710  0.60818840  0.01936253     0.92100
O515        O  0.27523462  0.53358684  0.05454589    -0.81500
O516        O  0.21302303  0.53066799  0.03558401    -0.75000
Al517      Al  0.28499379  0.55680411  0.01051856     1.90100
O518        O  0.25787203  0.55876527  0.08896325    -0.74100
O519        O  0.21782556  0.58720211  0.02371293    -0.74000
O520        O  0.25890003  0.61172669  0.08219367    -0.79600
O521        O  0.26183469  0.63365476  0.01647417    -0.77800
O522        O  0.27404392  0.58468805  0.02637080    -1.13900
O523        O  0.28837853  0.61549194  0.96601420    -0.73100
C524        C  0.29380677  0.59641280  0.94852320     0.97600
C525        C  0.26830405  0.53975140  0.08495585     0.94000
Al526      Al  0.23959046  0.57292629  0.05494592     1.55600
O527        O  0.32932695  0.58006421  0.02688467    -0.77800
C528        C  0.23062268  0.61624956  0.01696663     0.98100
C529        C  0.21632607  0.51631597  0.00930015     0.93000
O530        O  0.24258769  0.52926863  0.99168751    -0.83100
O531        O  0.22055025  0.89523625  0.36660235    -0.82500
C532        C  0.13652117  0.84399340  0.25550113     0.96800
O533        O  0.15189145  0.83565999  0.27624770    -0.71700
O534        O  0.19761623  0.84212026  0.32156036    -0.75300
Al535      Al  0.16001807  0.84750215  0.32431781     1.49000
C536        C  0.22497662  0.85762366  0.30641563     0.92100
O537        O  0.23181926  0.93439990  0.27625267    -0.81500
O538        O  0.17651337  0.94315671  0.31687298    -0.75000
Al539      Al  0.22259401  0.91265133  0.32051552     1.90100
O540        O  0.18255935  0.91824261  0.25371024    -0.74100
O541        O  0.12226059  0.88742030  0.32992096    -0.74000
O542        O  0.12956151  0.86510039  0.26427591    -0.79600
O543        O  0.11631652  0.84042110  0.32998544    -0.77800
O544        O  0.17937407  0.88797365  0.31273996    -1.13900
O545        O  0.16803029  0.85821600  0.37282023    -0.73100
C546        C  0.19635098  0.87674575  0.38595782     0.97600
C547        C  0.21343737  0.93208591  0.25061040     0.94000
Al548      Al  0.15489465  0.90247076  0.29308473     1.55600
O549        O  0.23512207  0.88557070  0.29759933    -0.77800
C550        C  0.10423862  0.85810984  0.33445684     0.98100
C551        C  0.20091681  0.95626942  0.33782217     0.93000
O552        O  0.21786779  0.94357626  0.34428096    -0.83100
C553        C  0.27043774  0.52393020  0.11676082    -0.06000
C554        C  0.28311387  0.54174816  0.14800127    -0.05900
C555        C  0.27825549  0.52689867  0.18047466    -0.24100
C556        C  0.25961846  0.99259612  0.18078128     0.18100
C557        C  0.24482206  0.97462881  0.14968527     0.15400
C558        C  0.25057021  0.98982454  0.11702882    -0.19100
C559        C  0.22257553  0.94216253  0.15220391    -0.20900
C560        C  0.21354823  0.92805419  0.18527881    -0.13500
C561        C  0.22752680  0.94591508  0.21622921     0.03200
C562        C  0.25149773  0.97790568  0.21382584    -0.25600
H563        H  0.29554419  0.56728422  0.14738212     0.08300
H564        H  0.28745304  0.54123727  0.20427999     0.11900
H565        H  0.23798776  0.97637265  0.09344718     0.11800
H566        H  0.21086633  0.92802093  0.12875717     0.11500
H567        H  0.19488715  0.90331241  0.18683708     0.12100
H568        H  0.26177787  0.99180577  0.23777891     0.14000
C569        C  0.12836869  0.83054936  0.21980195    -0.06000
C570        C  0.09957723  0.82581164  0.20280113    -0.05900
C571        C  0.09392291  0.81641867  0.16739512    -0.24100
C572        C  0.11746537  0.81251597  0.14841912     0.18100
C573        C  0.14655884  0.81734769  0.16542950     0.15400
C574        C  0.15156768  0.82587426  0.20119207    -0.19100
C575        C  0.17045589  0.81422910  0.14620231    -0.20900
C576        C  0.16554268  0.80626582  0.11034382    -0.13500
C577        C  0.13665939  0.80130728  0.09326286     0.03200
C578        C  0.11266307  0.80440035  0.11257296    -0.25600
H579        H  0.08168371  0.82969278  0.21685308     0.08300
H580        H  0.07154088  0.81289717  0.15465823     0.11900
H581        H  0.17422461  0.83031131  0.21414981     0.11800
H582        H  0.19301464  0.81813098  0.15884573     0.11500
H583        H  0.18441429  0.80418649  0.09594361     0.12100
H584        H  0.09023347  0.80065529  0.09970300     0.14000
C585        C  0.14526385  0.86747505  0.97067448    -0.06000
C586        C  0.17160559  0.88447277  0.94746244    -0.05900
C587        C  0.18803276  0.91742868  0.94720427    -0.24100
C588        C  0.17909293  0.93396833  0.97107448     0.18100
C589        C  0.15208275  0.91706756  0.99402056     0.15400
C590        C  0.13487153  0.88381996  0.99318695    -0.19100
C591        C  0.14412932  0.93371187  0.01884176    -0.20900
C592        C  0.16372065  0.96659195  0.02211103    -0.13500
C593        C  0.19133348  0.98354501  0.00024240     0.00200
C594        C  0.19807618  0.96700526  0.97389327    -0.25600
H595        H  0.18025116  0.87219171  0.93043506     0.08300
H596        H  0.20879173  0.92999057  0.92957530     0.11900
H597        H  0.11517047  0.87074785  0.01187791     0.11800
H598        H  0.12363018  0.92118122  0.03678130     0.11500
H599        H  0.15809880  0.97857573  0.04282751     0.12100
H600        H  0.21947258  0.97957167  0.95704932     0.14000
C601        C  0.20962581  0.63095246  0.01248811    -0.06000
C602        C  0.17494074  0.61264297  0.01017801    -0.05900
C603        C  0.15552413  0.62709406  0.00795360    -0.24100
C604        C  0.17037633  0.66015821  0.00841233     0.18100
C605        C  0.20515857  0.67864240  0.01144223     0.15400
C606        C  0.22442268  0.66404358  0.01316229    -0.19100
C607        C  0.22029899  0.71155466  0.01260527    -0.20900
C608        C  0.20140454  0.72619265  0.00959152    -0.13500
C609        C  0.16682652  0.70837783  0.00513173     0.03200
C610        C  0.15131741  0.67513699  0.00528005    -0.25600
H611        H  0.16280710  0.58713342  0.01014277     0.08300
H612        H  0.12889483  0.61239977  0.00589416     0.11900
H613        H  0.25106678  0.67860781  0.01559377     0.11800
H614        H  0.24691792  0.72607663  0.01526059     0.11500
H615        H  0.21419744  0.75173927  0.00974388     0.12100
H616        H  0.12474534  0.66102239  0.00185949     0.14000
C617        C  0.38531702  0.61916003  0.01915156    -0.06000
C618        C  0.39801497  0.60732747  0.99342933    -0.05900
C619        C  0.43218155  0.62034347  0.98960887    -0.24100
C620        C  0.45417324  0.64522046  0.01174737     0.18100
C621        C  0.44146417  0.65603415  0.03904953     0.15400
C622        C  0.40705758  0.64310928  0.04239169    -0.19100
C623        C  0.46343520  0.68064414  0.06138619    -0.20900
C624        C  0.49745684  0.69613601  0.05496628    -0.13500
C625        C  0.01024455  0.68731650  0.02610853     0.03200
C626        C  0.48848416  0.66072801  0.00566233    -0.25600
H627        H  0.38145659  0.58890967  0.97527233     0.08300
H628        H  0.44140261  0.61164036  0.96861655     0.11900
H629        H  0.39720234  0.65220644  0.06232009     0.11800
H630        H  0.45420864  0.68897126  0.08276304     0.11500
H631        H  0.01355934  0.71641075  0.07127702     0.12100
H632        H  0.49785865  0.65367859  0.98324196     0.14000
C633        C  0.03037752  0.73898423  0.90233038    -0.06000
C634        C  0.99627424  0.72145393  0.90869711    -0.05900
C635        C  0.47388949  0.71185262  0.88054063    -0.24100
C636        C  0.48550175  0.72019782  0.84591622     0.18100
C637        C  0.01983787  0.73949784  0.83983019     0.15400
C638        C  0.04205251  0.74838448  0.86805608    -0.19100
C639        C  0.03151812  0.74864121  0.80544630    -0.20900
C640        C  0.00950423  0.73768680  0.77706501    -0.13500
C641        C  0.47574222  0.71700214  0.78270932     0.03200
C642        C  0.46364539  0.70866106  0.81714332    -0.25600
H643        H  0.98712159  0.71383787  0.93516872     0.08300
H644        H  0.44767116  0.69726168  0.88570554     0.11900
H645        H  0.06847554  0.76193959  0.86335704     0.11800
H646        H  0.05771801  0.76355216  0.80043808     0.11500
H647        H  0.01906576  0.74392891  0.75049668     0.12100
H648        H  0.43747904  0.69261118  0.82134115     0.14000
C649        C  0.29866897  0.60040893  0.90987185    -0.06000
C650        C  0.29078302  0.62069657  0.89168738    -0.05900
C651        C  0.29861288  0.62713086  0.85595889    -0.24100
C652        C  0.31488628  0.61373161  0.83786714     0.18100
C653        C  0.32217638  0.59271315  0.85572543     0.15400
C654        C  0.31368584  0.58590999  0.89137998    -0.19100
C655        C  0.33898731  0.57973134  0.83803519    -0.20900
C656        C  0.34963393  0.58837794  0.80343278    -0.13500
C657        C  0.34335550  0.60988709  0.78562600     0.03200
C658        C  0.32516784  0.62190596  0.80273271    -0.25600
H659        H  0.27910506  0.63210118  0.90528522     0.08300
H660        H  0.29276318  0.64326648  0.84276042     0.11900
H661        H  0.32013012  0.57040508  0.90510597     0.11800
H662        H  0.34475233  0.56356741  0.85129860     0.11500
H663        H  0.36348891  0.57870043  0.79082348     0.12100
H664        H  0.32046009  0.63875503  0.78938825     0.14000
C665        C  0.20430027  0.81543063  0.75768011    -0.06000
C666        C  0.20360841  0.83972754  0.77700776    -0.05900
C667        C  0.19533228  0.83594776  0.81287796    -0.24100
C668        C  0.18693323  0.80754974  0.82982998     0.18100
C669        C  0.18743847  0.78293061  0.81054832     0.15400
C670        C  0.19655015  0.78719775  0.77484838    -0.19100
C671        C  0.17806669  0.75416776  0.82706184    -0.20900
C672        C  0.16747706  0.74951609  0.86213192    -0.13500
C673        C  0.16682441  0.77378105  0.88159113     0.03200
C674        C  0.17716621  0.80300031  0.86541126    -0.25600
H675        H  0.20966713  0.86171336  0.76441755     0.08300
H676        H  0.19500466  0.85505993  0.82722871     0.11900
H677        H  0.19672908  0.76814143  0.76015609     0.11800
H678        H  0.17824304  0.73501595  0.81261724     0.11500
H679        H  0.15961619  0.72684254  0.87403290     0.12100
H680        H  0.17632289  0.82173851  0.88006627     0.14000
C681        C  0.13026403  0.77738303  0.63220592    -0.06000
C682        C  0.11312381  0.79286850  0.62220350    -0.05900
C683        C  0.07853109  0.77701227  0.62274402    -0.24100
C684        C  0.06052307  0.74552194  0.63369002     0.18100
C685        C  0.07744203  0.72926930  0.64197648     0.15400
C686        C  0.11210125  0.74513212  0.64062839    -0.19100
C687        C  0.05956900  0.69802239  0.65366642    -0.20900
C688        C  0.02554556  0.68374745  0.65957977    -0.13500
C689        C  0.00868984  0.70021354  0.65312987     0.03200
C690        C  0.02617655  0.73067366  0.63866622    -0.25600
H691        H  0.12645955  0.81762579  0.61546696     0.08300
H692        H  0.06593657  0.78981773  0.61615937     0.11900
H693        H  0.12495264  0.73280761  0.64827299     0.11800
H694        H  0.07217235  0.68517214  0.65997407     0.11500
H695        H  0.01267065  0.66030790  0.67061774     0.12100
H696        H  0.01356414  0.74379766  0.63379980     0.14000
C697        C  0.30642839  0.94042804  0.67551845    -0.06000
C698        C  0.29296569  0.95156175  0.70138719    -0.05900
C699        C  0.30438354  0.98376729  0.70562073    -0.24100
C700        C  0.32969588  0.00578980  0.68417003     0.18100
C701        C  0.34483590  0.99537996  0.65926221     0.15400
C702        C  0.33311265  0.96269022  0.65505656    -0.19100
C703        C  0.36993546  0.51737455  0.64034974    -0.20900
C704        C  0.38077905  0.54976260  0.64335792    -0.13500
C705        C  0.36402449  0.56043766  0.66524247     0.03200
C706        C  0.33684058  0.53830729  0.68492193    -0.25600
H707        H  0.27248387  0.93516756  0.71753503     0.08300
H708        H  0.29280133  0.99138986  0.72515599     0.11900
H709        H  0.34359474  0.95458174  0.63477597     0.11800
H710        H  0.38292352  0.50969854  0.62280117     0.11500
H711        H  0.40212412  0.56647087  0.62846659     0.12100
H712        H  0.32433170  0.54642075  0.70267217     0.14000
C713        C  0.35465479  0.72574599  0.71219690    -0.06000
C714        C  0.32082489  0.71004142  0.72020712    -0.05900
C715        C  0.30344763  0.72630139  0.72085690    -0.24100
C716        C  0.31941276  0.75836078  0.71232006     0.18100
C717        C  0.35382437  0.77495226  0.70604708     0.15400
C718        C  0.37150412  0.75861035  0.70691076    -0.19100
C719        C  0.36922363  0.80684864  0.69624581    -0.20900
C720        C  0.35019550  0.82112579  0.68939341    -0.13500
C721        C  0.31566268  0.80385987  0.69307945     0.03200
C722        C  0.30088687  0.77320695  0.70689693    -0.25600
H723        H  0.30752777  0.68482216  0.72456706     0.08300
H724        H  0.27706557  0.71332507  0.72582598     0.11900
H725        H  0.39758608  0.77079478  0.70036766     0.11800
H726        H  0.39563090  0.82006888  0.69155306     0.11500
H727        H  0.36216877  0.84478270  0.67893211     0.12100
H728        H  0.27428082  0.75972409  0.71039793     0.14000
C729        C  0.24745740  0.88167048  0.54675141    -0.06000
C730        C  0.27474660  0.89570553  0.52399352    -0.05900
C731        C  0.27040529  0.89944351  0.48827772    -0.24100
C732        C  0.23853282  0.88827878  0.47461042     0.18100
C733        C  0.21097664  0.87449423  0.49746930     0.15400
C734        C  0.21569256  0.87190169  0.53357691    -0.19100
C735        C  0.17902345  0.86226967  0.48359679    -0.20900
C736        C  0.17433871  0.86306759  0.44731337    -0.13500
C737        C  0.20151979  0.87657165  0.42436028     0.03200
C738        C  0.23367160  0.88964924  0.43829871    -0.25600
H739        H  0.29940224  0.90310077  0.53375587     0.08300
H740        H  0.29176012  0.90995949  0.47117385     0.11900
H741        H  0.19454507  0.86040581  0.55090262     0.11800
H742        H  0.15766774  0.85154081  0.50066999     0.11500
H743        H  0.14934941  0.85308457  0.43719237     0.12100
H744        H  0.25479265  0.89996489  0.42083524     0.14000
C745        C  0.44360183  0.76696519  0.33570018    -0.06000
C746        C  0.45900119  0.75118026  0.32093606    -0.05900
C747        C  0.49335081  0.76602825  0.31861029    -0.24100
C748        C  0.01316399  0.79702125  0.33109662     0.18100
C749        C  0.99829856  0.81360498  0.34548027     0.15400
C750        C  0.46348417  0.79845725  0.34767441    -0.19100
C751        C  0.01864071  0.84489419  0.35748660    -0.20900
C752        C  0.05326228  0.85966272  0.35463174    -0.13500
C753        C  0.06807126  0.84309748  0.34054055     0.03200
C754        C  0.04766331  0.81165099  0.32913202    -0.25600
H755        H  0.44443204  0.72696697  0.31175169     0.08300
H756        H  0.50445706  0.75308962  0.30736060     0.11900
H757        H  0.45199104  0.81078153  0.35961450     0.11800
H758        H  0.00776625  0.85806021  0.36864418     0.11500
H759        H  0.06840908  0.88394911  0.36332141     0.12100
H760        H  0.05862452  0.79867851  0.31756754     0.14000
C761        C  0.31345238  0.79303172  0.33470258    -0.06000
C762        C  0.32779656  0.82223436  0.35261213    -0.05900
C763        C  0.31607459  0.84317020  0.34691916    -0.24100
C764        C  0.28947726  0.83494178  0.32369444     0.18100
C765        C  0.27621553  0.80639976  0.30413773     0.15400
C766        C  0.28880604  0.78611227  0.30914408    -0.19100
C767        C  0.24883877  0.79735585  0.28191910    -0.20900
C768        C  0.23319726  0.81526404  0.28104439    -0.13500
C769        C  0.24547953  0.84303454  0.30124785     0.03200
C770        C  0.27435840  0.85350570  0.32151753    -0.25600
H771        H  0.34675183  0.82811707  0.37243003     0.08300
H772        H  0.32658079  0.86497342  0.36210037     0.11900
H773        H  0.27760006  0.76375519  0.29493564     0.11800
H774        H  0.23836146  0.77549428  0.26683837     0.11500
H775        H  0.21072821  0.80683769  0.26566466     0.12100
H776        H  0.28334236  0.87463418  0.33774315     0.14000
C777        C  0.25449766  0.60515993  0.35877801    -0.06000
C778        C  0.22507543  0.59245139  0.33904964    -0.05900
C779        C  0.20603207  0.55977801  0.33310342    -0.24100
C780        C  0.21610617  0.53946469  0.34711003     0.18100
C781        C  0.24467147  0.55227063  0.36882582     0.15400
C782        C  0.26378904  0.58494898  0.37417764    -0.19100
C783        C  0.25466820  0.53238942  0.38355887    -0.20900
C784        C  0.23788692  0.50036601  0.37519578    -0.13500
C785        C  0.21240056  0.98809388  0.35328269     0.03200
C786        C  0.19936662  0.50698560  0.33840458    -0.25600
H787        H  0.21791942  0.60793214  0.32655244     0.08300
H788        H  0.18417079  0.55055121  0.31654030     0.11900
H789        H  0.28668596  0.59485242  0.38916480     0.11800
H790        H  0.27624164  0.54178782  0.40060327     0.11500
H791        H  0.24997651  0.98692423  0.38600070     0.12100
H792        H  0.17867658  0.49741729  0.32011334     0.14000
C793        C  0.30668320  0.68480097  0.24742016    -0.06000
C794        C  0.27732196  0.68130880  0.23293410    -0.05900
C795        C  0.26890481  0.67195254  0.19776653    -0.24100
C796        C  0.28966951  0.66585766  0.17650539     0.18100
C797        C  0.31997516  0.67066213  0.19033580     0.15400
C798        C  0.32835319  0.68023864  0.22562900    -0.19100
C799        C  0.34087669  0.66479520  0.16895760    -0.20900
C800        C  0.33141918  0.65345754  0.13449243    -0.13500
C801        C  0.30079256  0.64747958  0.12109827     0.03200
C802        C  0.28016932  0.65409072  0.14202997    -0.25600
H803        H  0.26033631  0.68494706  0.24907687     0.08300
H804        H  0.24574803  0.66867922  0.18748302     0.11900
H805        H  0.35109116  0.68288437  0.23643964     0.11800
H806        H  0.36417810  0.66833616  0.17911808     0.11500
H807        H  0.34743672  0.64812240  0.11876042     0.12100
H808        H  0.25651323  0.64950600  0.13168980     0.14000
C809        C  0.28800697  0.72587965  0.46305518    -0.06000
C810        C  0.30814010  0.72965904  0.49245480    -0.05900
C811        C  0.30345909  0.74085542  0.52458529    -0.24100
C812        C  0.27833119  0.74824254  0.52810378     0.18100
C813        C  0.25581828  0.74165174  0.49991393     0.15400
C814        C  0.26069065  0.73027565  0.46740493    -0.19100
C815        C  0.23011459  0.74838034  0.50422165    -0.20900
C816        C  0.22785459  0.76292288  0.53534453    -0.13500
C817        C  0.25158976  0.77142093  0.56220696     0.03200
C818        C  0.27631393  0.76340736  0.55879946    -0.25600
H819        H  0.32899392  0.72583928  0.48995364     0.08300
H820        H  0.32048346  0.74513702  0.54614968     0.11900
H821        H  0.24499952  0.72735371  0.44496099     0.11800
H822        H  0.21238617  0.74325687  0.48318017     0.11500
H823        H  0.20846740  0.76881054  0.53782547     0.12100
H824        H  0.29434036  0.76954462  0.57982915     0.14000
C825        C  0.38855201  0.68769240  0.58326007    -0.06000
C826        C  0.40705112  0.71921272  0.57213566    -0.05900
C827        C  0.40898948  0.72671544  0.53667894    -0.24100
C828        C  0.39230177  0.70292254  0.51145512     0.18100
C829        C  0.37390974  0.67103890  0.52185237     0.15400
C830        C  0.37221267  0.66352943  0.55785782    -0.19100
C831        C  0.35700182  0.64750916  0.49605813    -0.20900
C832        C  0.35690666  0.65576964  0.46076290    -0.13500
C833        C  0.37408715  0.68763629  0.45076847     0.03200
C834        C  0.39272250  0.71087881  0.47614761    -0.25600
H835        H  0.42012449  0.73837965  0.59092794     0.08300
H836        H  0.42315057  0.75124849  0.52905859     0.11900
H837        H  0.35814766  0.63915189  0.56604149     0.11800
H838        H  0.34289096  0.62290637  0.50336146     0.11500
H839        H  0.34219025  0.63739027  0.44166664     0.12100
H840        H  0.40617594  0.73553678  0.46884187     0.14000
O841        O  0.79004291  0.18743587  0.30690841    -0.82500
C842        C  0.86894593  0.19590498  0.41631089     0.96800
O843        O  0.85242285  0.17609329  0.39233250    -0.71700
O844        O  0.80534687  0.14802223  0.34523530    -0.75300
Al845      Al  0.84647003  0.18666830  0.34611818     1.49000
C846        C  0.77819112  0.13932995  0.36039481     0.92100
O847        O  0.78165776  0.21326688  0.40083392    -0.81500
O848        O  0.84215754  0.27199366  0.37054167    -0.75000
Al849      Al  0.78970756  0.20101755  0.35461510     1.90100
O850        O  0.82998366  0.23286751  0.42666142    -0.74100
O851        O  0.89223885  0.26272393  0.35338827    -0.74000
O852        O  0.87910860  0.22508182  0.41235178    -0.79600
O853        O  0.89215790  0.21881690  0.34315758    -0.77800
O854        O  0.83147159  0.21124356  0.36293602    -1.13900
O855        O  0.84040392  0.19509119  0.29882749    -0.73100
C856        C  0.81273398  0.18958394  0.28658717     0.97600
C857        C  0.79960527  0.22327752  0.42824186     0.94000
Al858      Al  0.85852432  0.24537011  0.38840127     1.55600
O859        O  0.77124807  0.15936003  0.37235682    -0.77800
C860        C  0.90744967  0.24861005  0.34428716     0.98100
C861        C  0.82029243  0.26746026  0.34784083     0.93000
O862        O  0.80154700  0.24029714  0.33545890    -0.83100
O863        O  0.72048005  0.30125146  0.70403369    -0.82500
C864        C  0.75055387  0.37551885  0.58272606     0.96800
O865        O  0.73276716  0.37579528  0.60784440    -0.71700
O866        O  0.68105826  0.32504450  0.62957886    -0.75300
Al867      Al  0.72092709  0.35518527  0.65267666     1.49000
C868        C  0.66465446  0.29599387  0.63527413     0.92100
O869        O  0.72345654  0.28234329  0.60767316    -0.81500
O870        O  0.80187997  0.34203744  0.66632832    -0.75000
Al871      Al  0.72296195  0.29336868  0.65572655     1.90100
O872        O  0.77635465  0.31637786  0.60001171    -0.74100
O873        O  0.79905534  0.39435346  0.64793466    -0.74000
O874        O  0.77023920  0.36527800  0.58665783    -0.79600
O875        O  0.75622108  0.38952585  0.67644244    -0.77800
O876        O  0.74251512  0.33424844  0.64543192    -1.13900
O877        O  0.70559248  0.33736521  0.69898559    -0.73100
C878        C  0.70953798  0.31795221  0.71750316     0.97600
C879        C  0.74975111  0.29201438  0.59024781     0.94000
Al880      Al  0.78342470  0.35301996  0.62715476     1.55600
O881        O  0.67853171  0.28249572  0.64895566    -0.77800
C882        C  0.78585895  0.40613984  0.66723280     0.98100
C883        C  0.79140906  0.31344804  0.67395691     0.93000
O884        O  0.76222522  0.29269186  0.66606584    -0.83100
O885        O  0.90524954  0.20285678  0.64101288    -0.82500
C886        C  0.85895491  0.12219632  0.75137206     0.96800
O887        O  0.84859612  0.13582253  0.73110704    -0.71700
O888        O  0.85311919  0.17940444  0.68718585    -0.75300
Al889      Al  0.86055761  0.14430536  0.68272393     1.49000
C890        C  0.86909214  0.20595354  0.70253373     0.92100
O891        O  0.95473047  0.21797837  0.72543714    -0.81500
O892        O  0.96323895  0.16771377  0.68997032    -0.75000
Al893      Al  0.92729610  0.20641608  0.68432694     1.90100
O894        O  0.93704670  0.17316964  0.75289434    -0.74100
O895        O  0.90766499  0.11375666  0.67748484    -0.74000
O896        O  0.88363016  0.11933428  0.74291801    -0.79600
O897        O  0.85644647  0.10324453  0.67653664    -0.77800
O898        O  0.90334258  0.16540096  0.69376934    -1.13900
O899        O  0.87050611  0.15196430  0.63339101    -0.73100
C900        C  0.88826330  0.17938477  0.62085034     0.97600
C901        C  0.95399757  0.20276755  0.75236772     0.94000
Al902      Al  0.92147896  0.14517797  0.71398692     1.55600
O903        O  0.89918163  0.21707986  0.71007126    -0.77800
C904        C  0.87742047  0.09439333  0.67244301     0.98100
C905        C  0.97436126  0.18862434  0.66639363     0.93000
O906        O  0.95840045  0.20179137  0.65726834    -0.83100
O907        O  0.60759320  0.29264636  0.03969055    -0.82500
C908        C  0.65112821  0.26713024  0.91583177     0.96800
O909        O  0.65998476  0.29005307  0.93711309    -0.71700
O910        O  0.65390964  0.32557324  0.98541015    -0.75300
Al911      Al  0.65347161  0.28642588  0.98675329     1.49000
C912        C  0.63295157  0.33315004  0.97623070     0.92100
O913        O  0.55142586  0.25605338  0.95980601    -0.81500
O914        O  0.55468462  0.20182317  0.98605849    -0.75000
Al915      Al  0.58254284  0.27346071  0.99806964     1.90100
O916        O  0.57287465  0.23494217  0.92479134    -0.74100
O917        O  0.61634539  0.20951313  0.99002950    -0.74000
O918        O  0.63070042  0.23924581  0.92522691    -0.79600
O919        O  0.66395490  0.25350887  0.98919480    -0.77800
O920        O  0.61016606  0.26134856  0.98129275    -1.13900
O921        O  0.65007897  0.28495610  0.03698838    -0.73100
C922        C  0.63112086  0.29142856  0.05457796     0.97600
C923        C  0.55251684  0.24417068  0.93045664     0.94000
Al924      Al  0.59490372  0.22439026  0.95871330     1.55600
O925        O  0.60279178  0.31255726  0.97357968    -0.77800
C926        C  0.64745715  0.22406765  0.99387620     0.98100
C927        C  0.54346341  0.20920992  0.01269840     0.93000
O928        O  0.55886075  0.23681908  0.02512360    -0.83100
O929        O  0.79709116  0.07576438  0.96396239    -0.82500
C930        C  0.78877565  0.13185764  0.08702854     0.96800
O931        O  0.80939222  0.13755565  0.06272598    -0.71700
O932        O  0.83975800  0.12691587  0.01114964    -0.75300
Al933      Al  0.79801757  0.12544645  0.01505189     1.49000
C934        C  0.84939882  0.10815578  0.02031531     0.92100
O935        O  0.77432508  0.03331575  0.05369718    -0.81500
O936        O  0.71294434  0.03092548  0.03522336    -0.75000
Al937      Al  0.78472715  0.05714646  0.01018325     1.90100
O938        O  0.75768967  0.05868860  0.08882556    -0.74100
O939        O  0.71783064  0.08742013  0.02355935    -0.74000
O940        O  0.75848813  0.11172448  0.08240878    -0.79600
O941        O  0.76185918  0.13393279  0.01640090    -0.77800
O942        O  0.77399120  0.08504854  0.02644258    -1.13900
O943        O  0.78909345  0.11642836  0.96644404    -0.73100
C944        C  0.79443402  0.09740174  0.94879131     0.97600
C945        C  0.76760735  0.03931307  0.08427436     0.94000
Al946      Al  0.73942954  0.07307727  0.05488293     1.55600
O947        O  0.82884934  0.07989428  0.02705478    -0.77800
C948        C  0.73065745  0.11636591  0.01630500     0.98100
C949        C  0.71623514  0.01698222  0.00853545     0.93000
O950        O  0.74241894  0.03028871  0.99082398    -0.83100
O951        O  0.72015514  0.39478470  0.36685930    -0.82500
C952        C  0.63671083  0.34223131  0.25502724     0.96800
O953        O  0.65231332  0.33437387  0.27602333    -0.71700
O954        O  0.69847295  0.34227064  0.32161266    -0.75300
Al955      Al  0.66024180  0.34678526  0.32417134     1.49000
C956        C  0.72613346  0.35833371  0.30708762     0.92100
O957        O  0.73179028  0.43519303  0.27750098    -0.81500
O958        O  0.67638422  0.44250115  0.31421996    -0.75000
Al959      Al  0.72216184  0.41251409  0.32124573     1.90100
O960        O  0.68304572  0.41620954  0.25239731    -0.74100
O961        O  0.62220053  0.38671081  0.32817638    -0.74000
O962        O  0.62970277  0.36335579  0.26352652    -0.79600
O963        O  0.61639828  0.33971871  0.32971102    -0.77800
O964        O  0.67929355  0.38715849  0.31237473    -1.13900
O965        O  0.66778583  0.35762991  0.37275290    -0.73100
C966        C  0.69591188  0.37637850  0.38608068     0.97600
C967        C  0.71404612  0.43178774  0.25080744     0.94000
Al968      Al  0.65493882  0.40118331  0.29154764     1.55600
O969        O  0.73600241  0.38632083  0.29839803    -0.77800
C970        C  0.60433715  0.35752412  0.33376491     0.98100
C971        C  0.69951775  0.45533737  0.33673677     0.93000
O972        O  0.71545730  0.44211064  0.34542974    -0.83100
C973        C  0.76945716  0.02281297  0.11551557    -0.06000
C974        C  0.78473403  0.04035807  0.14626251    -0.05900
C975        C  0.78038508  0.02532999  0.17854143    -0.24100
C976        C  0.75965050  0.49394876  0.18236890     0.18100
C977        C  0.74768145  0.47575764  0.15086391     0.15400
C978        C  0.75390814  0.49089890  0.11810319    -0.19100
C979        C  0.72757784  0.44290836  0.15290761    -0.20900
C980        C  0.71784752  0.42846723  0.18575639    -0.13500
C981        C  0.72903662  0.44646308  0.21703907     0.03200
C982        C  0.75087214  0.47904970  0.21528696    -0.25600
H983        H  0.79895812  0.06589201  0.14547751     0.08300
H984        H  0.79173520  0.03950310  0.20205818     0.11900
H985        H  0.74331067  0.47712916  0.09413551     0.11800
H986        H  0.71801911  0.42857779  0.12914447     0.11500
H987        H  0.70079151  0.40327476  0.18681741     0.12100
H988        H  0.75892011  0.49301565  0.23946981     0.14000
C989        C  0.62796406  0.32815774  0.21942679    -0.06000
C990        C  0.60201273  0.32816512  0.20084472    -0.05900
C991        C  0.59678340  0.31956150  0.16525976    -0.24100
C992        C  0.61785814  0.31143394  0.14755267     0.18100
C993        C  0.64362722  0.31065949  0.16611923     0.15400
C994        C  0.64821155  0.31858014  0.20218063    -0.19100
C995        C  0.66498408  0.30304682  0.14796810    -0.20900
C996        C  0.66112857  0.29674019  0.11161022    -0.13500
C997        C  0.63575961  0.29781853  0.09297114     0.03200
C998        C  0.61401597  0.30486064  0.11135236    -0.25600
H999        H  0.58625278  0.33558353  0.21367857     0.08300
H1000       H  0.57687911  0.32020205  0.15132413     0.11900
H1001       H  0.66865324  0.31905083  0.21627109     0.11800
H1002       H  0.68491818  0.30238647  0.16179200     0.11500
H1003       H  0.67803224  0.29116631  0.09808573     0.12100
H1004       H  0.59419399  0.30567483  0.09742456     0.14000
C1005       C  0.64441294  0.36680230  0.97083651    -0.06000
C1006       C  0.66954792  0.38383801  0.94636743    -0.05900
C1007       C  0.68578120  0.41680815  0.94611303    -0.24100
C1008       C  0.67789773  0.43330504  0.97120033     0.18100
C1009       C  0.65200576  0.41632043  0.99537542     0.15400
C1010       C  0.63495830  0.38308115  0.99458826    -0.19100
C1011       C  0.64504428  0.43287781  0.02127033    -0.20900
C1012       C  0.66459491  0.46576813  0.02436620    -0.13500
C1013       C  0.69122577  0.48283652  0.00132685     0.00200
C1014       C  0.69690011  0.46637158  0.97395905    -0.25600
H1015       H  0.67742065  0.37159544  0.92829415     0.08300
H1016       H  0.70563812  0.42942482  0.92746854     0.11900
H1017       H  0.61614772  0.36995992  0.01414096     0.11800
H1018       H  0.62539692  0.42027165  0.04013740     0.11500
H1019       H  0.65980980  0.47766350  0.04587581     0.12100
H1020       H  0.71750639  0.47903681  0.95614809     0.14000
C1021       C  0.70960605  0.13075751  0.01032372    -0.06000
C1022       C  0.67508308  0.11219194  0.00626896    -0.05900
C1023       C  0.65550336  0.12637771  0.00291748    -0.24100
C1024       C  0.67002340  0.15940103  0.00405299     0.18100
C1025       C  0.70467047  0.17811215  0.00841166     0.15400
C1026       C  0.72411068  0.16379366  0.01116206    -0.19100
C1027       C  0.71949632  0.21096878  0.01014236    -0.20900
C1028       C  0.70040286  0.22535128  0.00687738    -0.13500
C1029       C  0.66593937  0.20733186  0.00158559     0.03200
C1030       C  0.65076009  0.17413046  0.00062531    -0.25600
H1031       H  0.66319980  0.08669619  0.00585056     0.08300
H1032       H  0.62899631  0.11151400  0.99969089     0.11900
H1033       H  0.75062151  0.17852351  0.01476236     0.11800
H1034       H  0.74600654  0.22564678  0.01370162     0.11500
H1035       H  0.71294573  0.25088510  0.00777599     0.12100
H1036       H  0.62430130  0.15988983  0.99638945     0.14000
C1037       C  0.88498137  0.11893975  0.02066692    -0.06000
C1038       C  0.89756755  0.10566283  0.99661056    -0.05900
C1039       C  0.93171179  0.11850846  0.99287453    -0.24100
C1040       C  0.95377088  0.14457371  0.01356716     0.18100
C1041       C  0.94115163  0.15676431  0.03946181     0.15400
C1042       C  0.90678742  0.14409792  0.04257691    -0.19100
C1043       C  0.96316105  0.18238881  0.06059150    -0.20900
C1044       C  0.99714296  0.19745513  0.05420625    -0.13500
C1045       C  0.50984010  0.18733696  0.02641671     0.03200
C1046       C  0.98804604  0.15982178  0.00733655    -0.25600
H1047       H  0.88094321  0.08627323  0.97950208     0.08300
H1048       H  0.94085240  0.10870219  0.97303334     0.11900
H1049       H  0.89701234  0.15426502  0.06127683     0.11800
H1050       H  0.95400494  0.19175669  0.08093806     0.11500
H1051       H  0.51326094  0.21844259  0.06952658     0.12100
H1052       H  0.99735957  0.15171543  0.98582791     0.14000
C1053       C  0.52904454  0.23970905  0.90256281    -0.06000
C1054       C  0.49496365  0.22144506  0.90864795    -0.05900
C1055       C  0.97270598  0.21229609  0.88043239    -0.24100
C1056       C  0.98442833  0.22176905  0.84604286     0.18100
C1057       C  0.51868385  0.24194293  0.84030959     0.15400
C1058       C  0.54080032  0.25046174  0.86860690    -0.19100
C1059       C  0.53040050  0.25208624  0.80612711    -0.20900
C1060       C  0.50857854  0.24100363  0.77753826    -0.13500
C1061       C  0.97499705  0.21928295  0.78280465     0.03200
C1062       C  0.96280300  0.21026454  0.81709958    -0.25600
H1063       H  0.48577109  0.21283681  0.93486225     0.08300
H1064       H  0.94653580  0.19703765  0.88530613     0.11900
H1065       H  0.56721807  0.26459020  0.86414281     0.11800
H1066       H  0.55652912  0.26770347  0.80139158     0.11500
H1067       H  0.51824270  0.24784778  0.75108964     0.12100
H1068       H  0.93678389  0.19346478  0.82102404     0.14000
C1069       C  0.79938155  0.10161792  0.91020668    -0.06000
C1070       C  0.79339438  0.12343157  0.89260667    -0.05900
C1071       C  0.80136044  0.12997027  0.85695563    -0.24100
C1072       C  0.81585163  0.11511474  0.83835912     0.18100
C1073       C  0.82114626  0.09252708  0.85557632     0.15400
C1074       C  0.81250957  0.08564889  0.89117747    -0.19100
C1075       C  0.83626217  0.07812221  0.83732995    -0.20900
C1076       C  0.84737633  0.08699624  0.80288241    -0.13500
C1077       C  0.84307109  0.11002820  0.78580923     0.03200
C1078       C  0.82641464  0.12339393  0.80336400    -0.25600
H1079       H  0.78317009  0.13597476  0.90660805     0.08300
H1080       H  0.79707089  0.14732386  0.84422216     0.11900
H1081       H  0.81740626  0.06888500  0.90443780     0.11800
H1082       H  0.84045620  0.06071794  0.85008484     0.11500
H1083       H  0.86000885  0.07628183  0.78979300     0.12100
H1084       H  0.82328624  0.14142527  0.79052119     0.14000
C1085       C  0.70062399  0.31406123  0.75533947    -0.06000
C1086       C  0.69852080  0.33780468  0.77428054    -0.05900
C1087       C  0.68991442  0.33391750  0.81001129    -0.24100
C1088       C  0.68266223  0.30596535  0.82724105     0.18100
C1089       C  0.68437706  0.28179101  0.80831137     0.15400
C1090       C  0.69375938  0.28616423  0.77268866    -0.19100
C1091       C  0.67607877  0.25341756  0.82515694    -0.20900
C1092       C  0.66564679  0.24881926  0.86028316    -0.13500
C1093       C  0.66410176  0.27277808  0.87942967     0.03200
C1094       C  0.67304878  0.30149561  0.86283726    -0.25600
H1095       H  0.70379138  0.35950143  0.76150850     0.08300
H1096       H  0.68857509  0.35263784  0.82407141     0.11900
H1097       H  0.69496708  0.26751560  0.75824919     0.11800
H1098       H  0.67711299  0.23457764  0.81099022     0.11500
H1099       H  0.65875369  0.22648428  0.87253241     0.12100
H1100       H  0.67138392  0.31990851  0.87725383     0.14000
C1101       C  0.62856144  0.27764542  0.62854438    -0.06000
C1102       C  0.61107733  0.29256507  0.61775686    -0.05900
C1103       C  0.57646066  0.27627435  0.61823712    -0.24100
C1104       C  0.55888747  0.24502599  0.63010198     0.18100
C1105       C  0.57620845  0.22927044  0.63885043     0.15400
C1106       C  0.61080893  0.24545251  0.63728255    -0.19100
C1107       C  0.55885726  0.19834276  0.65156915    -0.20900
C1108       C  0.52501527  0.18408602  0.65843044    -0.13500
C1109       C  0.50785259  0.20022125  0.65181925     0.03200
C1110       C  0.52466776  0.23009781  0.63587967    -0.25600
H1111       H  0.62413615  0.31723300  0.61061767     0.08300
H1112       H  0.56353274  0.28865459  0.61119801     0.11900
H1113       H  0.62393493  0.23351545  0.64537783     0.11800
H1114       H  0.57180012  0.18588102  0.65817719     0.11500
H1115       H  0.51259649  0.16103022  0.67044140     0.12100
H1116       H  0.51175620  0.24288572  0.63071234     0.14000
C1117       C  0.80344556  0.44049545  0.67633359    -0.06000
C1118       C  0.78875910  0.45197284  0.70029119    -0.05900
C1119       C  0.80008296  0.48425146  0.70351579    -0.24100
C1120       C  0.82651561  0.50597803  0.68296098     0.18100
C1121       C  0.84279753  0.49519998  0.66009248     0.15400
C1122       C  0.83118226  0.46248217  0.65690708    -0.19100
C1123       C  0.87089700  0.01790322  0.63858808    -0.20900
C1124       C  0.88167673  0.05022808  0.64256363    -0.13500
C1125       C  0.86588325  0.06047020  0.66641891     0.03200
C1126       C  0.83991950  0.03804583  0.68715927    -0.25600
H1127       H  0.76740171  0.43580050  0.71555553     0.08300
H1128       H  0.78758931  0.49215479  0.72151231     0.11900
H1129       H  0.84262789  0.45412248  0.63807326     0.11800
H1130       H  0.88302790  0.01053791  0.61947028     0.11500
H1131       H  0.90207018  0.06719884  0.62675569     0.12100
H1132       H  0.82818178  0.04586630  0.70632695     0.14000
C1133       C  0.85245549  0.22441698  0.70928308    -0.06000
C1134       C  0.81836604  0.20836103  0.71601548    -0.05900
C1135       C  0.80064838  0.22430087  0.71567203    -0.24100
C1136       C  0.81655815  0.25645542  0.70757229     0.18100
C1137       C  0.85113203  0.27338052  0.70243483     0.15400
C1138       C  0.86909515  0.25731356  0.70411367    -0.19100
C1139       C  0.86653743  0.30543558  0.69326201    -0.20900
C1140       C  0.84752393  0.31975349  0.68645096    -0.13500
C1141       C  0.81292375  0.30234711  0.68938199     0.03200
C1142       C  0.79796191  0.27122251  0.70189996    -0.25600
H1143       H  0.80518020  0.18312649  0.72023863     0.08300
H1144       H  0.77413314  0.21105687  0.71978526     0.11900
H1145       H  0.89538415  0.26980705  0.69853578     0.11800
H1146       H  0.89305904  0.31890202  0.68935802     0.11500
H1147       H  0.85964107  0.34370880  0.67686566     0.12100
H1148       H  0.77128052  0.25752831  0.70467983     0.14000
C1149       C  0.74695266  0.38511969  0.54726296    -0.06000
C1150       C  0.77427999  0.39883823  0.52455120    -0.05900
C1151       C  0.76992702  0.40188060  0.48868337    -0.24100
C1152       C  0.73802318  0.39031300  0.47492665     0.18100
C1153       C  0.71049367  0.37724892  0.49783348     0.15400
C1154       C  0.71524148  0.37547413  0.53405775    -0.19100
C1155       C  0.67850804  0.36461345  0.48389721    -0.20900
C1156       C  0.67375639  0.36417124  0.44747882    -0.13500
C1157       C  0.70092451  0.37688962  0.42451973     0.03200
C1158       C  0.73309439  0.39044904  0.43849954    -0.25600
H1159       H  0.79889540  0.40618159  0.53440276     0.08300
H1160       H  0.79125774  0.41192759  0.47152531     0.11900
H1161       H  0.69407967  0.36428044  0.55141486     0.11800
H1162       H  0.65718248  0.35444818  0.50104452     0.11500
H1163       H  0.64877510  0.35393622  0.43726483     0.12100
H1164       H  0.75420586  0.40022077  0.42100579     0.14000
C1165       C  0.94382978  0.26610106  0.33847468    -0.06000
C1166       C  0.95957323  0.24894112  0.32934088    -0.05900
C1167       C  0.99392174  0.26347213  0.32846386    -0.24100
C1168       C  0.51351352  0.29566529  0.33633213     0.18100
C1169       C  0.49841806  0.31366440  0.34483536     0.15400
C1170       C  0.96353249  0.29872088  0.34604129    -0.19100
C1171       C  0.51862441  0.34617928  0.35188181    -0.20900
C1172       C  0.55326494  0.36070032  0.34949074    -0.13500
C1173       C  0.56829697  0.34279990  0.34089118     0.03200
C1174       C  0.54803252  0.31011822  0.33507513    -0.25600
H1175       H  0.94529461  0.22386351  0.32367862     0.08300
H1176       H  0.00518882  0.24941376  0.32171822     0.11900
H1177       H  0.95184604  0.31224395  0.35353340     0.11800
H1178       H  0.50762776  0.36048934  0.35848050     0.11500
H1179       H  0.56823241  0.38592593  0.35382869     0.12100
H1180       H  0.55905952  0.29591663  0.32795061     0.14000
C1181       C  0.81397871  0.29309243  0.33723507    -0.06000
C1182       C  0.82736501  0.32163419  0.35641386    -0.05900
C1183       C  0.81568874  0.34265760  0.35090172    -0.24100
C1184       C  0.79006778  0.33520760  0.32653967     0.18100
C1185       C  0.77768278  0.30731497  0.30591822     0.15400
C1186       C  0.79016967  0.28690919  0.31087314    -0.19100
C1187       C  0.75130234  0.29903143  0.28245065    -0.20900
C1188       C  0.73577606  0.31703759  0.28118570    -0.13500
C1189       C  0.74712672  0.34415810  0.30236304     0.03200
C1190       C  0.77503879  0.35387818  0.32410175    -0.25600
H1191       H  0.84560738  0.32695152  0.37691611     0.08300
H1192       H  0.82551224  0.36393656  0.36694653     0.11900
H1193       H  0.77960355  0.26505506  0.29574364     0.11800
H1194       H  0.74148258  0.27766368  0.26655367     0.11500
H1195       H  0.71400533  0.30910624  0.26474197     0.12100
H1196       H  0.78326871  0.37444377  0.34111544     0.14000
C1197       C  0.75443265  0.10539362  0.36214967    -0.06000
C1198       C  0.72437654  0.09238571  0.34360164    -0.05900
C1199       C  0.70548018  0.05970723  0.33785168    -0.24100
C1200       C  0.71637823  0.03969451  0.35082173     0.18100
C1201       C  0.74553770  0.05272544  0.37160369     0.15400
C1202       C  0.76444765  0.08543981  0.37688886    -0.19100
C1203       C  0.75639027  0.03305864  0.38514864    -0.20900
C1204       C  0.73992196  0.00111212  0.37626551    -0.13500
C1205       C  0.71099046  0.48744378  0.35138697     0.03200
C1206       C  0.69988994  0.00732901  0.34175705    -0.25600
H1207       H  0.71665583  0.10765353  0.33163607     0.08300
H1208       H  0.68314513  0.05026279  0.32203183     0.11900
H1209       H  0.78784340  0.09558600  0.39097694     0.11800
H1210       H  0.77843560  0.04260845  0.40148803     0.11500
H1211       H  0.74729671  0.48600954  0.38603330     0.12100
H1212       H  0.67871248  0.99766384  0.32412026     0.14000
C1213       C  0.80565117  0.18354689  0.24842344    -0.06000
C1214       C  0.77473577  0.17699730  0.23508670    -0.05900
C1215       C  0.76596070  0.16726450  0.20011151    -0.24100
C1216       C  0.78795054  0.16393056  0.17781214     0.18100
C1217       C  0.81971461  0.17187385  0.19040846     0.15400
C1218       C  0.82841086  0.18172654  0.22561040    -0.19100
C1219       C  0.84180743  0.16881698  0.16788669    -0.20900
C1220       C  0.83212793  0.15706192  0.13357910    -0.13500
C1221       C  0.80013188  0.14790519  0.12144250     0.03200
C1222       C  0.77830859  0.15184978  0.14348911    -0.25600
H1223       H  0.75682120  0.17845500  0.25199972     0.08300
H1224       H  0.74165043  0.16156236  0.19077949     0.11900
H1225       H  0.85237054  0.18682009  0.23551183     0.11800
H1226       H  0.86626768  0.17484453  0.17703845     0.11500
H1227       H  0.84921413  0.15394601  0.11698505     0.12100
H1228       H  0.75363005  0.14492684  0.13415788     0.14000
C1229       C  0.78668995  0.22629591  0.46276438    -0.06000
C1230       C  0.80491453  0.22846516  0.49325410    -0.05900
C1231       C  0.79965330  0.23989219  0.52489583    -0.24100
C1232       C  0.77588660  0.24918302  0.52675774     0.18100
C1233       C  0.75525643  0.24449269  0.49726813     0.15400
C1234       C  0.76066557  0.23281783  0.46529492    -0.19100
C1235       C  0.73093263  0.25326729  0.49988444    -0.20900
C1236       C  0.72818000  0.26777093  0.53080339    -0.13500
C1237       C  0.75008176  0.27413300  0.55909568     0.03200
C1238       C  0.77341803  0.26428047  0.55721436    -0.25600
H1239       H  0.82475821  0.22309145  0.49208275     0.08300
H1240       H  0.81521165  0.24279317  0.54745409     0.11900
H1241       H  0.74649638  0.23120985  0.44194227     0.11800
H1242       H  0.71467501  0.24967182  0.47777897     0.11500
H1243       H  0.70988028  0.27515478  0.53214073     0.12100
H1244       H  0.78999758  0.26885136  0.57934823     0.14000
C1245       C  0.89027258  0.18535520  0.58250788    -0.06000
C1246       C  0.91163482  0.21625393  0.57073971    -0.05900
C1247       C  0.91427384  0.22337693  0.53514100    -0.24100
C1248       C  0.89540606  0.19985806  0.51039931     0.18100
C1249       C  0.87456973  0.16842071  0.52136236     0.15400
C1250       C  0.87226536  0.16123435  0.55752726    -0.19100
C1251       C  0.85559851  0.14518015  0.49600595    -0.20900
C1252       C  0.85552100  0.15356874  0.46076469    -0.13500
C1253       C  0.87472542  0.18523143  0.45043195     0.03200
C1254       C  0.89580654  0.20786443  0.47511239    -0.25600
H1255       H  0.92632256  0.23530331  0.58914354     0.08300
H1256       H  0.93045683  0.24752577  0.52707283     0.11900
H1257       H  0.85607320  0.13728128  0.56619206     0.11800
H1258       H  0.83968513  0.12088498  0.50369304     0.11500
H1259       H  0.83902289  0.13564604  0.44212174     0.12100
H1260       H  0.91097323  0.23228968  0.46738465     0.14000
O1261       O  0.79035091  0.68846783  0.30578888    -0.82500
C1262       C  0.86880214  0.69753825  0.41587893     0.96800
O1263       O  0.85252294  0.67723065  0.39214622    -0.71700
O1264       O  0.80592567  0.64831242  0.34407110    -0.75300
Al1265     Al  0.84669930  0.68721648  0.34549132     1.49000
C1266       C  0.77833358  0.63915477  0.35827629     0.92100
O1267       O  0.78123551  0.71170132  0.40116555    -0.81500
O1268       O  0.84271330  0.77287460  0.36736845    -0.75000
Al1269     Al  0.78926875  0.70077939  0.35408493     1.90100
O1270       O  0.83081419  0.73549022  0.42470891    -0.74100
O1271       O  0.89199291  0.76303331  0.35087760    -0.74000
O1272       O  0.87922676  0.72665640  0.41095119    -0.79600
O1273       O  0.89254680  0.71929051  0.34242802    -0.77800
O1274       O  0.83138181  0.71175086  0.36183760    -1.13900
O1275       O  0.84058951  0.69531944  0.29820142    -0.73100
C1276       C  0.81317800  0.69040146  0.28572014     0.97600
C1277       C  0.80014813  0.72359066  0.42770316     0.94000
Al1278     Al  0.85876019  0.74659107  0.38621891     1.55600
O1279       O  0.77114892  0.65883445  0.37064421    -0.77800
C1280       C  0.90744261  0.74905609  0.34241833     0.98100
C1281       C  0.81960754  0.76757138  0.34615954     0.93000
O1282       O  0.79963148  0.73995608  0.33603286    -0.83100
O1283       O  0.72292478  0.80164699  0.70625902    -0.82500
C1284       C  0.75144819  0.87275418  0.58253606     0.96800
O1285       O  0.73431725  0.87399384  0.60787291    -0.71700
O1286       O  0.68295445  0.82434261  0.63219458    -0.75300
Al1287     Al  0.72336200  0.85481842  0.65375621     1.49000
C1288       C  0.66652459  0.79535724  0.63817103     0.92100
O1289       O  0.72546039  0.78075306  0.61058830    -0.81500
O1290       O  0.80425651  0.84243142  0.66762628    -0.75000
Al1291     Al  0.72519539  0.79291661  0.65825464     1.90100
O1292       O  0.77827760  0.81444587  0.60229813    -0.74100
O1293       O  0.80125310  0.89402598  0.64670273    -0.74000
O1294       O  0.77116030  0.86254751  0.58668705    -0.79600
O1295       O  0.75914971  0.88961873  0.67620906    -0.77800
O1296       O  0.74461486  0.83355390  0.64682508    -1.13900
O1297       O  0.70900244  0.83838044  0.70092209    -0.73100
C1298       C  0.71271528  0.81893331  0.71965804     0.97600
C1299       C  0.75164209  0.78985144  0.59312421     0.94000
Al1300     Al  0.78526955  0.85189796  0.62779413     1.55600
O1301       O  0.68054831  0.78176638  0.65134546    -0.77800
C1302       C  0.78855490  0.90609064  0.66629884     0.98100
C1303       C  0.79392489  0.81417212  0.67663090     0.93000
O1304       O  0.76477433  0.79297131  0.66915021    -0.83100
O1305       O  0.90627828  0.70401497  0.64156452    -0.82500
C1306       C  0.85877492  0.62192766  0.75088747     0.96800
O1307       O  0.84874930  0.63616710  0.73115791    -0.71700
O1308       O  0.85408023  0.68070495  0.68841525    -0.75300
Al1309     Al  0.86056809  0.64518271  0.68274110     1.49000
C1310       C  0.87064779  0.70696794  0.70415802     0.92100
O1311       O  0.95545314  0.71686166  0.72578482    -0.81500
O1312       O  0.96292824  0.66677233  0.68952173    -0.75000
Al1313     Al  0.92816996  0.70648206  0.68471414     1.90100
O1314       O  0.93667592  0.67157842  0.75257035    -0.74100
O1315       O  0.90657754  0.61351590  0.67583293    -0.74000
O1316       O  0.88283616  0.61837757  0.74164881    -0.79600
O1317       O  0.85562928  0.60387603  0.67545426    -0.77800
O1318       O  0.90343986  0.66542228  0.69350846    -1.13900
O1319       O  0.87013224  0.65348791  0.63345388    -0.73100
C1320       C  0.88801220  0.68104600  0.62130538     0.97600
C1321       C  0.95429100  0.70113170  0.75240838     0.94000
Al1322     Al  0.92087786  0.64429701  0.71306496     1.55600
O1323       O  0.90075647  0.71757686  0.71107219    -0.77800
C1324       C  0.87618075  0.59452891  0.67102377     0.98100
C1325       C  0.97468951  0.68819193  0.66653381     0.93000
O1326       O  0.95892597  0.70152796  0.65724196    -0.83100
O1327       O  0.60728082  0.79346645  0.04023429    -0.82500
C1328       C  0.65325959  0.76798872  0.91780001     0.96800
O1329       O  0.66169399  0.79086279  0.93898439    -0.71700
O1330       O  0.65453774  0.82635692  0.98605488    -0.75300
Al1331     Al  0.65433580  0.78746320  0.98840835     1.49000
C1332       C  0.63361886  0.83384464  0.97651666     0.92100
O1333       O  0.55247400  0.75639242  0.95950902    -0.81500
O1334       O  0.55585032  0.70247264  0.98673282    -0.75000
Al1335     Al  0.58294564  0.77406594  0.99829324     1.90100
O1336       O  0.57463901  0.73535274  0.92541858    -0.74100
O1337       O  0.61747976  0.71056780  0.99221006    -0.74000
O1338       O  0.63271508  0.74009956  0.92710225    -0.79600
O1339       O  0.66500256  0.75464303  0.99208961    -0.77800
O1340       O  0.61108163  0.76216743  0.98239553    -1.13900
O1341       O  0.65038899  0.78665032  0.03834815    -0.73100
C1342       C  0.63128640  0.79329432  0.05534527     0.97600
C1343       C  0.55390862  0.74423069  0.93048960     0.94000
Al1344     Al  0.59639821  0.72517573  0.96004783     1.55600
O1345       O  0.60345553  0.81322470  0.97378517    -0.77800
C1346       C  0.64849727  0.72518811  0.99678906     0.98100
C1347       C  0.54396401  0.70966572  0.01292344     0.93000
O1348       O  0.55879660  0.73733246  0.02529528    -0.83100
O1349       O  0.79673118  0.57497455  0.96390991    -0.82500
C1350       C  0.78926022  0.63169091  0.08663767     0.96800
O1351       O  0.80975609  0.63731759  0.06218193    -0.71700
O1352       O  0.83970568  0.62662633  0.00993265    -0.75300
Al1353     Al  0.79790627  0.62500261  0.01454604     1.49000
C1354       C  0.84966604  0.60818625  0.01936433     0.92100
O1355       O  0.77523208  0.53358551  0.05454658    -0.81500
O1356       O  0.71302229  0.53066724  0.03558495    -0.75000
Al1357     Al  0.78499237  0.55680264  0.01051907     1.90100
O1358       O  0.75787146  0.55876580  0.08896372    -0.74100
O1359       O  0.71782490  0.58720115  0.02371165    -0.74000
O1360       O  0.75889884  0.61172702  0.08219286    -0.79600
O1361       O  0.76183423  0.63365361  0.01647211    -0.77800
O1362       O  0.77404320  0.58468721  0.02637090    -1.13900
O1363       O  0.78837934  0.61549079  0.96601402    -0.73100
C1364       C  0.79380730  0.59641134  0.94852342     0.97600
C1365       C  0.76830244  0.53975108  0.08495651     0.94000
Al1366     Al  0.73958967  0.57292603  0.05494580     1.55600
O1367       O  0.82932541  0.58006193  0.02688551    -0.77800
C1368       C  0.73062220  0.61624839  0.01696404     0.98100
C1369       C  0.71632496  0.51631527  0.00930083     0.93000
O1370       O  0.74258624  0.52926810  0.99168762    -0.83100
O1371       O  0.72054866  0.89523472  0.36660413    -0.82500
C1372       C  0.63652026  0.84399270  0.25550227     0.96800
O1373       O  0.65189041  0.83565924  0.27624899    -0.71700
O1374       O  0.69761489  0.84211934  0.32156167    -0.75300
Al1375     Al  0.66001669  0.84750119  0.32431914     1.49000
C1376       C  0.72497531  0.85762280  0.30641700     0.92100
O1377       O  0.73181827  0.93439967  0.27625530    -0.81500
O1378       O  0.67651250  0.94315621  0.31687447    -0.75000
Al1379     Al  0.72259265  0.91265037  0.32051767     1.90100
O1380       O  0.68255867  0.91824196  0.25371175    -0.74100
O1381       O  0.62225930  0.88741951  0.32992205    -0.74000
O1382       O  0.62956052  0.86509964  0.26427701    -0.79600
O1383       O  0.61631512  0.84042024  0.32998651    -0.77800
O1384       O  0.67937281  0.88797277  0.31274157    -1.13900
O1385       O  0.66802863  0.85821468  0.37282172    -0.73100
C1386       C  0.69634937  0.87674416  0.38595945     0.97600
C1387       C  0.71343679  0.93208583  0.25061270     0.94000
Al1388     Al  0.65489364  0.90247006  0.29308608     1.55600
O1389       O  0.73512097  0.88557001  0.29760114    -0.77800
C1390       C  0.60423728  0.85810903  0.33445786     0.98100
C1391       C  0.70091572  0.95626863  0.33782409     0.93000
O1392       O  0.71786600  0.94357487  0.34428354    -0.83100
C1393       C  0.77043578  0.52392994  0.11676166    -0.06000
C1394       C  0.78311058  0.54174764  0.14800245    -0.05900
C1395       C  0.77825185  0.52689784  0.18047557    -0.24100
C1396       C  0.75961576  0.99259877  0.18078561     0.18100
C1397       C  0.74482349  0.97463094  0.14968875     0.15400
C1398       C  0.75057255  0.98982667  0.11703216    -0.19100
C1399       C  0.72258025  0.94216389  0.15220657    -0.20900
C1400       C  0.71355216  0.92805487  0.18528116    -0.13500
C1401       C  0.72752696  0.94591622  0.21623220     0.03200
C1402       C  0.75149443  0.97790797  0.21382992    -0.25600
H1403       H  0.79554020  0.56728385  0.14738362     0.08300
H1404       H  0.78744860  0.54123660  0.20428185     0.11900
H1405       H  0.73799317  0.97637416  0.09344959     0.11800
H1406       H  0.71087401  0.92802171  0.12875904     0.11500
H1407       H  0.69489388  0.90331267  0.18683862     0.12100
H1408       H  0.76177145  0.99180828  0.23778344     0.14000
C1409       C  0.62836820  0.83054872  0.21980295    -0.06000
C1410       C  0.59957621  0.82580982  0.20280222    -0.05900
C1411       C  0.59392193  0.81641637  0.16739621    -0.24100
C1412       C  0.61746499  0.81251451  0.14842028     0.18100
C1413       C  0.64655897  0.81734744  0.16543059     0.15400
C1414       C  0.65156771  0.82587438  0.20119311    -0.19100
C1415       C  0.67045637  0.81422962  0.14620336    -0.20900
C1416       C  0.66554345  0.80626604  0.11034488    -0.13500
C1417       C  0.63665960  0.80130641  0.09326402     0.03200
C1418       C  0.61266279  0.80439850  0.11257420    -0.25600
H1419       H  0.58168243  0.82969013  0.21685391     0.08300
H1420       H  0.57153993  0.81289391  0.15465967     0.11900
H1421       H  0.67422493  0.83031221  0.21415082     0.11800
H1422       H  0.69301613  0.81813254  0.15884699     0.11500
H1423       H  0.68441494  0.80418766  0.09594501     0.12100
H1424       H  0.59023252  0.80065253  0.09970409     0.14000
C1425       C  0.64526633  0.86747690  0.97067699    -0.06000
C1426       C  0.67160731  0.88447485  0.94746414    -0.05900
C1427       C  0.68803384  0.91743082  0.94720563    -0.24100
C1428       C  0.67909399  0.93397012  0.97107646     0.18100
C1429       C  0.65208466  0.91706905  0.99402344     0.15400
C1430       C  0.63487413  0.88382148  0.99319007    -0.19100
C1431       C  0.64413132  0.93371298  0.01884544    -0.20900
C1432       C  0.66372229  0.96659317  0.02211423    -0.13500
C1433       C  0.69133429  0.98354657  0.00024468     0.00200
C1434       C  0.69807644  0.96700695  0.97389507    -0.25600
H1435       H  0.68025271  0.87219414  0.93043627     0.08300
H1436       H  0.70879159  0.92999259  0.92957653     0.11900
H1437       H  0.61517350  0.87074906  0.01188172     0.11800
H1438       H  0.62363365  0.92118257  0.03678496     0.11500
H1439       H  0.65810063  0.97857698  0.04283161     0.12100
H1440       H  0.71947335  0.97957433  0.95704949     0.14000
C1441       C  0.70962543  0.63095120  0.01248360    -0.06000
C1442       C  0.67494039  0.61264194  0.01017333    -0.05900
C1443       C  0.65552387  0.62709319  0.00794834    -0.24100
C1444       C  0.67037646  0.66015747  0.00840687     0.18100
C1445       C  0.70515872  0.67864137  0.01143617     0.15400
C1446       C  0.72442264  0.66404236  0.01315652    -0.19100
C1447       C  0.72029956  0.71155365  0.01259893    -0.20900
C1448       C  0.70140535  0.72619194  0.00958629    -0.13500
C1449       C  0.66682718  0.70837750  0.00512776     0.03200
C1450       C  0.65131770  0.67513657  0.00527552    -0.25600
H1451       H  0.66280647  0.58713226  0.01013876     0.08300
H1452       H  0.62889513  0.61239937  0.00588923     0.11900
H1453       H  0.75106646  0.67860632  0.01558776     0.11800
H1454       H  0.74691850  0.72607534  0.01525362     0.11500
H1455       H  0.71419864  0.75173866  0.00973872     0.12100
H1456       H  0.62474569  0.66102231  0.00185574     0.14000
C1457       C  0.88531594  0.61915761  0.01915501    -0.06000
C1458       C  0.89801425  0.60732216  0.99343638    -0.05900
C1459       C  0.93218096  0.62033832  0.98961688    -0.24100
C1460       C  0.95417234  0.64521790  0.01175267     0.18100
C1461       C  0.94146277  0.65603414  0.03905170     0.15400
C1462       C  0.90705613  0.64310940  0.04239281    -0.19100
C1463       C  0.96343331  0.68064643  0.06138635    -0.20900
C1464       C  0.99745499  0.69613784  0.05496684    -0.13500
C1465       C  0.51024579  0.68731690  0.02610536     0.03200
C1466       C  0.98848337  0.66072544  0.00566796    -0.25600
H1467       H  0.88145640  0.58890258  0.97528159     0.08300
H1468       H  0.94140258  0.61163286  0.96862647     0.11900
H1469       H  0.89720055  0.65220854  0.06231853     0.11800
H1470       H  0.95420656  0.68897515  0.08276038     0.11500
H1471       H  0.51356125  0.71640684  0.07127785     0.12100
H1472       H  0.99785826  0.65367406  0.98324964     0.14000
C1473       C  0.53038208  0.73899033  0.90232772    -0.06000
C1474       C  0.49627853  0.72146751  0.90869536    -0.05900
C1475       C  0.97388551  0.71183754  0.88054209    -0.24100
C1476       C  0.98549753  0.72018847  0.84591853     0.18100
C1477       C  0.51984279  0.73950004  0.83982658     0.15400
C1478       C  0.54205742  0.74838508  0.86805235    -0.19100
C1479       C  0.53152340  0.74863780  0.80544175    -0.20900
C1480       C  0.50950889  0.73768440  0.77706090    -0.13500
C1481       C  0.97573875  0.71699795  0.78271181     0.03200
C1482       C  0.96364213  0.70865090  0.81714503    -0.25600
H1483       H  0.48712530  0.71385582  0.93516777     0.08300
H1484       H  0.94766707  0.69724068  0.88570609     0.11900
H1485       H  0.56848097  0.76193492  0.86335239     0.11800
H1486       H  0.55772388  0.76354339  0.80043249     0.11500
H1487       H  0.51907033  0.74392162  0.75049234     0.12100
H1488       H  0.93747625  0.69259584  0.82134177     0.14000
C1489       C  0.79866997  0.60040744  0.90987215    -0.06000
C1490       C  0.79078264  0.62069388  0.89168720    -0.05900
C1491       C  0.79861218  0.62712784  0.85595854    -0.24100
C1492       C  0.81488682  0.61372948  0.83786741     0.18100
C1493       C  0.82217871  0.59271251  0.85572630     0.15400
C1494       C  0.81368837  0.58590958  0.89138097    -0.19100
C1495       C  0.83899097  0.57973185  0.83803649    -0.20900
C1496       C  0.84963685  0.58837796  0.80343380    -0.13500
C1497       C  0.84335632  0.60988547  0.78562634     0.03200
C1498       C  0.82516767  0.62190330  0.80273285    -0.25600
H1499       H  0.77910374  0.63209756  0.90528442     0.08300
H1500       H  0.79276134  0.64326188  0.84275990     0.11900
H1501       H  0.82013375  0.57040594  0.90510731     0.11800
H1502       H  0.84475748  0.56356899  0.85130049     0.11500
H1503       H  0.86349286  0.57870136  0.79082470     0.12100
H1504       H  0.82045831  0.63875140  0.78938772     0.14000
C1505       C  0.70430346  0.81543300  0.75768094    -0.06000
C1506       C  0.70361076  0.83972970  0.77700822    -0.05900
C1507       C  0.69533482  0.83595006  0.81287829    -0.24100
C1508       C  0.68693700  0.80755269  0.82983090     0.18100
C1509       C  0.68744335  0.78293385  0.81054968     0.15400
C1510       C  0.69655473  0.78720077  0.77484976    -0.19100
C1511       C  0.67807268  0.75417143  0.82706362    -0.20900
C1512       C  0.66748278  0.74951973  0.86213360    -0.13500
C1513       C  0.66682884  0.77378435  0.88159222     0.03200
C1514       C  0.67716988  0.80300335  0.86541213    -0.25600
H1515       H  0.70966853  0.86171523  0.76441745     0.08300
H1516       H  0.69500628  0.85506274  0.82722923     0.11900
H1517       H  0.69673437  0.76814449  0.76015767     0.11800
H1518       H  0.67824994  0.73501996  0.81261945     0.11500
H1519       H  0.65962268  0.72684669  0.87403472     0.12100
H1520       H  0.67632555  0.82174098  0.88006660     0.14000
C1521       C  0.63026559  0.77738534  0.63220804    -0.06000
C1522       C  0.61312493  0.79287037  0.62220566    -0.05900
C1523       C  0.57853218  0.77701363  0.62274620    -0.24100
C1524       C  0.56052464  0.74552332  0.63369236     0.18100
C1525       C  0.57744412  0.72927125  0.64197932     0.15400
C1526       C  0.61210332  0.74513450  0.64063101    -0.19100
C1527       C  0.55957155  0.69802453  0.65366960    -0.20900
C1528       C  0.52554807  0.68374881  0.65958274    -0.13500
C1529       C  0.50869180  0.70021429  0.65313186     0.03200
C1530       C  0.52617809  0.73067430  0.63866807    -0.25600
H1531       H  0.62646036  0.81762768  0.61546893     0.08300
H1532       H  0.56593721  0.78981866  0.61616132     0.11900
H1533       H  0.62495486  0.73281050  0.64827559     0.11800
H1534       H  0.57217579  0.68517427  0.65997794     0.11500
H1535       H  0.51267373  0.66030989  0.67062069     0.12100
H1536       H  0.51356495  0.74379798  0.63380093     0.14000
C1537       C  0.80643036  0.94042956  0.67551890    -0.06000
C1538       C  0.79296866  0.95156304  0.70138909    -0.05900
C1539       C  0.80438633  0.98376852  0.70562279    -0.24100
C1540       C  0.82969740  0.00579105  0.68417089     0.18100
C1541       C  0.84483633  0.99538134  0.65926151     0.15400
C1542       C  0.83311326  0.96269178  0.65505580    -0.19100
C1543       C  0.86993445  0.51737435  0.64034942    -0.20900
C1544       C  0.88077781  0.54976236  0.64335719    -0.13500
C1545       C  0.86402146  0.56043750  0.66523869     0.03200
C1546       C  0.83683528  0.53830697  0.68491543    -0.25600
H1547       H  0.77248800  0.93516889  0.71753780     0.08300
H1548       H  0.79280501  0.99139098  0.72515919     0.11900
H1549       H  0.84359477  0.95458311  0.63477357     0.11800
H1550       H  0.88292405  0.50969847  0.62280357     0.11500
H1551       H  0.90212515  0.56647114  0.62846757     0.12100
H1552       H  0.82432486  0.54642027  0.70266335     0.14000
C1553       C  0.85465422  0.72574625  0.71220110    -0.06000
C1554       C  0.82082438  0.71004228  0.72021128    -0.05900
C1555       C  0.80344731  0.72630248  0.72085982    -0.24100
C1556       C  0.81941285  0.75836170  0.71232189     0.18100
C1557       C  0.85382449  0.77495273  0.70604922     0.15400
C1558       C  0.87150399  0.75861056  0.70691399    -0.19100
C1559       C  0.86922416  0.80684892  0.69624707    -0.20900
C1560       C  0.85019645  0.82112629  0.68939344    -0.13500
C1561       C  0.81566359  0.80386076  0.69307926     0.03200
C1562       C  0.80088731  0.77320807  0.70689748    -0.25600
H1563       H  0.80752683  0.68482282  0.72457193     0.08300
H1564       H  0.77706551  0.71332665  0.72582867     0.11900
H1565       H  0.89758550  0.77079437  0.70037099     0.11800
H1566       H  0.89563160  0.82006890  0.69155459     0.11500
H1567       H  0.86216995  0.84478282  0.67893166     0.12100
H1568       H  0.77428115  0.75972552  0.71039832     0.14000
C1569       C  0.74745757  0.88167221  0.54675277    -0.06000
C1570       C  0.77474655  0.89570909  0.52399501    -0.05900
C1571       C  0.77040485  0.89944679  0.48827924    -0.24100
C1572       C  0.73853181  0.88827956  0.47461202     0.18100
C1573       C  0.71097576  0.87449311  0.49747079     0.15400
C1574       C  0.71569210  0.87190111  0.53357843    -0.19100
C1575       C  0.67902215  0.86226608  0.48359835    -0.20900
C1576       C  0.67433712  0.86306367  0.44731487    -0.13500
C1577       C  0.70151818  0.87656980  0.42436189     0.03200
C1578       C  0.73367034  0.88964971  0.43830027    -0.25600
H1579       H  0.79940316  0.90310627  0.53375760     0.08300
H1580       H  0.79175920  0.90996412  0.47117575     0.11900
H1581       H  0.69454513  0.86040407  0.55090387     0.11800
H1582       H  0.65766684  0.85153586  0.50067124     0.11500
H1583       H  0.64934781  0.85307890  0.43719402     0.12100
H1584       H  0.75479090  0.89996678  0.42083731     0.14000
C1585       C  0.94360322  0.76696592  0.33569758    -0.06000
C1586       C  0.95900277  0.75118090  0.32093396    -0.05900
C1587       C  0.99335241  0.76602899  0.31860871    -0.24100
C1588       C  0.51316254  0.79702053  0.33109825     0.18100
C1589       C  0.49829733  0.81360425  0.34548232     0.15400
C1590       C  0.96348544  0.79845792  0.34767176    -0.19100
C1591       C  0.51863964  0.84489352  0.35748856    -0.20900
C1592       C  0.55326109  0.85966182  0.35463327    -0.13500
C1593       C  0.56806996  0.84309672  0.34054173     0.03200
C1594       C  0.54766186  0.81165019  0.32913322    -0.25600
H1595       H  0.94443385  0.72696780  0.31174981     0.08300
H1596       H  0.00445897  0.75309015  0.30735925     0.11900
H1597       H  0.95199189  0.81078240  0.35961187     0.11800
H1598       H  0.50776543  0.85805944  0.36864627     0.11500
H1599       H  0.56840848  0.88394892  0.36332327     0.12100
H1600       H  0.55862289  0.79867773  0.31756853     0.14000
C1601       C  0.81345055  0.79302988  0.33470208    -0.06000
C1602       C  0.82779497  0.82223251  0.35261191    -0.05900
C1603       C  0.81607274  0.84316830  0.34691969    -0.24100
C1604       C  0.78947531  0.83494001  0.32369521     0.18100
C1605       C  0.77621334  0.80639807  0.30413832     0.15400
C1606       C  0.78880366  0.78611032  0.30914434    -0.19100
C1607       C  0.74883663  0.79735443  0.28191962    -0.20900
C1608       C  0.73319543  0.81526307  0.28104511    -0.13500
C1609       C  0.74547804  0.84303350  0.30124886     0.03200
C1610       C  0.77435674  0.85350421  0.32151859    -0.25600
H1611       H  0.84675012  0.82811513  0.37242890     0.08300
H1612       H  0.82657896  0.86497110  0.36210086     0.11900
H1613       H  0.77759744  0.76375314  0.29493596     0.11800
H1614       H  0.73835944  0.77549368  0.26683919     0.11500
H1615       H  0.71072700  0.80683719  0.26566574     0.12100
H1616       H  0.78334091  0.87463266  0.33774447     0.14000
C1617       C  0.75450057  0.60515879  0.35877987    -0.06000
C1618       C  0.72507849  0.59245072  0.33905128    -0.05900
C1619       C  0.70603482  0.55977754  0.33310459    -0.24100
C1620       C  0.71610806  0.53946357  0.34711100     0.18100
C1621       C  0.74467321  0.55226886  0.36882703     0.15400
C1622       C  0.76379132  0.58494719  0.37417916    -0.19100
C1623       C  0.75466903  0.53238689  0.38355993    -0.20900
C1624       C  0.73788707  0.50036353  0.37519653    -0.13500
C1625       C  0.71240021  0.98809341  0.35328432     0.03200
C1626       C  0.69936780  0.50698450  0.33840517    -0.25600
H1627       H  0.71792279  0.60793207  0.32655425     0.08300
H1628       H  0.68417316  0.55055102  0.31654097     0.11900
H1629       H  0.78668835  0.59485024  0.38916666     0.11800
H1630       H  0.77624250  0.54178480  0.40060463     0.11500
H1631       H  0.74997696  0.98692398  0.38600055     0.12100
H1632       H  0.67867827  0.49741691  0.32011395     0.14000
C1633       C  0.80668336  0.68479930  0.24742097    -0.06000
C1634       C  0.77732241  0.68130810  0.23293529    -0.05900
C1635       C  0.76890513  0.67195268  0.19776757    -0.24100
C1636       C  0.78966922  0.66585752  0.17650572     0.18100
C1637       C  0.81997469  0.67066120  0.19033576     0.15400
C1638       C  0.82835306  0.68023697  0.22562917    -0.19100
C1639       C  0.84087586  0.66479423  0.16895697    -0.20900
C1640       C  0.83141803  0.65345707  0.13449180    -0.13500
C1641       C  0.80079153  0.64747961  0.12109791     0.03200
C1642       C  0.78016872  0.65409107  0.14203011    -0.25600
H1643       H  0.76033712  0.68494654  0.24907854     0.08300
H1644       H  0.74574808  0.66868008  0.18748419     0.11900
H1645       H  0.85109048  0.68288209  0.23643922     0.11800
H1646       H  0.86417729  0.66833473  0.17911720     0.11500
H1647       H  0.84743554  0.64812166  0.11875919     0.12100
H1648       H  0.75651270  0.64950683  0.13169019     0.14000
C1649       C  0.78801132  0.72588291  0.46305542    -0.06000
C1650       C  0.80814612  0.72966536  0.49245444    -0.05900
C1651       C  0.80346510  0.74086206  0.52458457    -0.24100
C1652       C  0.77833533  0.74824665  0.52810348     0.18100
C1653       C  0.75582117  0.74165334  0.49991432     0.15400
C1654       C  0.76069366  0.73027685  0.46740567    -0.19100
C1655       C  0.73011572  0.74837956  0.50422245    -0.20900
C1656       C  0.72785508  0.76292193  0.53534525    -0.13500
C1657       C  0.75159123  0.77142232  0.56220700     0.03200
C1658       C  0.77631740  0.76341136  0.55879896    -0.25600
H1659       H  0.82900181  0.72584728  0.48995288     0.08300
H1660       H  0.82049073  0.74514581  0.54614859     0.11900
H1661       H  0.74500095  0.72735259  0.44496192     0.11800
H1662       H  0.71238665  0.74325429  0.48318181     0.11500
H1663       H  0.70846634  0.76880768  0.53782652     0.12100
H1664       H  0.79434452  0.76955043  0.57982776     0.14000
C1665       C  0.88854410  0.68769696  0.58326432    -0.06000
C1666       C  0.90702820  0.71921962  0.57214396    -0.05900
C1667       C  0.90896562  0.72672402  0.53668797    -0.24100
C1668       C  0.89229199  0.70293075  0.51146100     0.18100
C1669       C  0.87391374  0.67104522  0.52185456     0.15400
C1670       C  0.87221735  0.66353394  0.55785933    -0.19100
C1671       C  0.85701931  0.64751483  0.49605722    -0.20900
C1672       C  0.85692406  0.65577556  0.46076200    -0.13500
C1673       C  0.87409161  0.68764327  0.45077078     0.03200
C1674       C  0.89271337  0.71088752  0.47615372    -0.25600
H1675       H  0.92009037  0.73838636  0.59093860     0.08300
H1676       H  0.92311608  0.75125944  0.52907024     0.11900
H1677       H  0.85816420  0.63915525  0.56604004     0.11800
H1678       H  0.84291928  0.62291098  0.50335769     0.11500
H1679       H  0.84221830  0.63739496  0.44166314     0.12100
H1680       H  0.90615649  0.73554665  0.46885091     0.14000
loop_ 
_geom_bond_atom_site_label_1 
_geom_bond_atom_site_label_2 
_geom_bond_distance 
_geom_bond_site_symmetry_2 
_ccdc_geom_bond_type 
O1           C16   1.271       .  A
O1           Al9   1.922       .  S
C2           O12   1.271       .  A
C2            O3   1.263       .  A
C2          C413   1.475       .  S
O3           Al5   1.891       .  S
O4            C6   1.258       .  A
O4           Al5   1.905       .  S
Al5          O13   1.919       .  S
Al5          O15   1.896       .  S
Al5          O14   1.781       .  S
C6           O19   1.257       .  A
C6          C357   1.467       .  S
O7           C17   1.265       .  A
O7           Al9   1.941       .  S
O8           C21   1.267       .  A
O8          Al18   1.940       .  S
Al9          O22   1.870       .  S
Al9          O19   1.903       .  S
Al9          O14   1.782       .  S
O10          C17   1.253       .  A
O10         Al18   1.857       .  S
O11          C20   1.260       .  A
O11         Al18   1.908       .  S
O12         Al18   1.928       .  S
O13          C20   1.263       .  A
O14         Al18   1.781       .  S
O15          C16   1.268       .  A
C16         C373   1.477       .  S
C17         C389   1.476       .  S
C20         C325   1.488       .  S
C21          O22   1.256       .  A
C21         C341   1.486       .  S
O23          C38   1.265       .  A
O23         Al31   1.881       .  S
C24          O34   1.259       .  A
C24          O25   1.267       .  A
C24         C309   1.466       .  S
O25         Al27   1.920       .  S
O26          C28   1.254       .  A
O26         Al27   1.907       .  S
Al27         O35   1.884       .  S
Al27         O37   1.938       .  S
Al27         O36   1.781       .  S
C28          O41   1.251       .  A
C28         C261   1.481       .  S
O29          C39   1.261       .  A
O29         Al31   1.896       .  S
O30          C43   1.267       .  A
O30         Al40   1.929       .  S
Al31         O44   1.893       .  S
Al31         O41   1.884       .  S
Al31         O36   1.783       .  S
O32          C39   1.269       .  A
O32         Al40   1.937       .  S
O33          C42   1.262       .  A
O33         Al40   1.933       .  S
O34         Al40   1.868       .  S
O35          C42   1.256       .  A
O36         Al40   1.796       .  S
O37          C38   1.273       .  A
C38         C245   1.479       .  S
C39         C397   1.466       .  S
C42         C277   1.492       .  S
C43          O44   1.260       .  A
C43         C301   1.485       .  S
O45          C60   1.266       .  A
O45         Al53   1.898       .  S
C46          O56   1.269       .  A
C46          O47   1.267       .  A
C46         C237   1.476       .  S
O47         Al49   1.904       .  S
O48          C50   1.264       .  A
O48         Al49   1.922       .  S
Al49         O57   1.933       .  S
Al49         O59   1.920       .  S
Al49         O58   1.778       .  S
C50          O63   1.259       .  A
C50         C293   1.478       .  S
O51          C61   1.260       .  A
O51         Al53   1.910       .  S
O52          C65   1.266       .  A
O52         Al62   1.926       .  S
Al53         O66   1.880       .  S
Al53         O63   1.903       .  S
Al53         O58   1.782       .  S
O54          C61   1.257       .  A
O54         Al62   1.881       .  S
O55          C64   1.260       .  A
O55         Al62   1.912       .  S
O56         Al62   1.926       .  S
O57          C64   1.263       .  A
O58         Al62   1.774       .  S
O59          C60   1.270       .  A
C60         C405   1.478       .  S
C61         C221   1.461       .  S
C64         C285   1.482       .  S
C65          O66   1.257       .  A
C65        C1109   1.480       .  S
O67          C82   1.264       .  A
O67         Al75   1.900   1_554  S
C68          O78   1.267       .  A
C68          O69   1.264       .  A
C68         C253   1.478       .  S
O69         Al71   1.900       .  S
O70          C72   1.259       .  A
O70         Al71   1.908       .  S
Al71         O79   1.908       .  S
Al71         O81   1.909   1_556  S
Al71         O80   1.775       .  S
C72          O85   1.260       .  A
C72         C165   1.472       .  S
O73          C83   1.262       .  A
O73         Al75   1.918       .  S
O74          C87   1.267   1_556  A
O74         Al84   1.940       .  S
Al75         O88   1.882   1_556  S
Al75         O85   1.909       .  S
Al75         O80   1.782       .  S
O76          C83   1.258       .  A
O76         Al84   1.879       .  S
O77          C86   1.266       .  A
O77         Al84   1.923       .  S
O78         Al84   1.931       .  S
O79          C86   1.263       .  A
O80         Al84   1.786       .  S
O81          C82   1.266       .  A
C82         C157   1.478       .  S
C83         C213   1.458       .  S
C86         C189   1.489   1_556  S
C87          O88   1.257       .  A
C87         C205   1.486       .  S
O89         C104   1.271       .  A
O89         Al97   1.933   1_556  S
C90         O100   1.266       .  A
C90          O91   1.260       .  A
C90         C381   1.470       .  S
O91         Al93   1.887       .  S
O92          C94   1.261       .  A
O92         Al93   1.921       .  S
Al93        O101   1.932       .  S
Al93        O103   1.887   1_554  S
Al93        O102   1.775       .  S
C94         O107   1.256       .  A
C94         C197   1.471       .  S
O95         C105   1.269       .  A
O95         Al97   1.946       .  S
O96         C109   1.265       .  A
O96        Al106   1.938       .  S
Al97        O110   1.885   1_554  S
Al97        O107   1.894       .  S
Al97        O102   1.779       .  S
O98         C105   1.258       .  A
O98        Al106   1.872       .  S
O99         C108   1.265       .  A
O99        Al106   1.911       .  S
O100       Al106   1.932       .  S
O101        C108   1.268       .  A
O102       Al106   1.781       .  S
O103        C104   1.263       .  A
C104        C229   1.480       .  S
C105        C133   1.467       .  S
C108        C181   1.488       .  S
C109        O110   1.257   1_554  A
C109        C593   1.488   1_545  S
O111        C126   1.271       .  A
O111       Al119   1.924       .  S
C112        O122   1.270       .  A
C112        O113   1.266       .  A
C112        C149   1.470       .  S
O113       Al115   1.894       .  S
O114        C116   1.257       .  A
O114       Al115   1.909       .  S
Al115       O123   1.910       .  S
Al115       O125   1.894       .  S
Al115       O124   1.777       .  S
C116        O129   1.255       .  A
C116        C349   1.468       .  S
O117        C127   1.264       .  A
O117       Al119   1.929       .  S
O118        C131   1.265       .  A
O118       Al128   1.941       .  S
Al119       O132   1.861       .  S
Al119       O129   1.902       .  S
Al119       O124   1.780       .  S
O120        C127   1.256       .  A
O120       Al128   1.875       .  S
O121        C130   1.263       .  A
O121       Al128   1.922       .  S
O122       Al128   1.929       .  S
O123        C130   1.261       .  A
O124       Al128   1.785       .  S
O125        C126   1.268       .  A
C126        C317   1.473       .  S
C127        C141   1.469       .  S
C130        C333   1.488       .  S
C131        O132   1.254       .  A
C131        C365   1.485       .  S
C133        C134   1.404       .  A
C133        C558   1.402   1_545  A
C134        C135   1.396       .  A
C134        H143   1.084       .  S
C135        C556   1.401   1_545  A
C135        H144   1.084       .  S
C136        C142   1.405       .  A
C136        C137   1.418       .  A
C136        C555   1.400       .  A
C137        C139   1.402       .  A
C137        C138   1.406       .  A
C138        C553   1.402       .  A
C138        H145   1.085       .  S
C139        C140   1.397       .  A
C139        H146   1.084       .  S
C140        C141   1.404       .  A
C140        H147   1.084       .  S
C141        C142   1.401       .  A
C142        H148   1.085       .  S
C149        C150   1.403       .  A
C149        C154   1.406       .  A
C150        C151   1.393       .  A
C150        H159   1.083       .  S
C151        C152   1.401       .  A
C151        H160   1.084       .  S
C152        C158   1.396       .  A
C152        C153   1.412       .  A
C153        C155   1.404       .  A
C153        C154   1.403       .  A
C154        H161   1.085       .  S
C155        C156   1.400       .  A
C155        H162   1.084       .  S
C156        C157   1.405       .  A
C156        H163   1.083       .  S
C157        C158   1.407       .  A
C158        H164   1.085       .  S
C165        C166   1.402       .  A
C165        C170   1.406       .  A
C166        C167   1.398       .  A
C166        H175   1.084       .  S
C167        C168   1.404       .  A
C167        H176   1.084       .  S
C168        C174   1.406       .  A
C168        C169   1.414       .  A
C169        C171   1.404   1_556  A
C169        C170   1.409       .  A
C170        H177   1.085   1_556  S
C171        C172   1.402       .  A
C171        H178   1.084       .  S
C172        C173   1.407       .  A
C172        H179   1.083       .  S
C173        C529   1.489       .  S
C173        C174   1.411   1_554  A
C174        H180   1.084       .  S
C181        C182   1.407       .  A
C181        C186   1.406       .  A
C182        C183   1.405       .  A
C182        H191   1.083       .  S
C183        C184   1.406       .  A
C183        H192   1.083   1_554  S
C184        C190   1.414       .  A
C184        C185   1.414       .  A
C185        C187   1.398       .  A
C185        C186   1.403       .  A
C186        H193   1.084       .  S
C187        C188   1.393       .  A
C187        H194   1.084       .  S
C188        C189   1.409       .  A
C188        H195   1.083       .  S
C189        C190   1.411       .  A
C190        H196   1.084   1_554  S
C197        C198   1.402   1_554  A
C197        C202   1.403       .  A
C198        C199   1.399       .  A
C198        H207   1.083       .  S
C199        C200   1.403   1_556  A
C199        H208   1.084       .  S
C200        C206   1.408       .  A
C200        C201   1.416       .  A
C201        C203   1.400       .  A
C201        C202   1.407       .  A
C202        H209   1.085       .  S
C203        C204   1.397       .  A
C203        H210   1.084       .  S
C204       C1045   1.409       .  A
C204       H1051   1.083       .  S
C205       C1044   1.409   1_455  A
C205       C1046   1.407   1_455  A
C206       C1045   1.407       .  A
C206        H212   1.084   1_554  S
H211       C1044   1.083   1_455  S
C213        C214   1.402   1_455  A
C213        C218   1.399       .  A
C214       C1055   1.397       .  A
C214        H223   1.084       .  S
C215        C216   1.403       .  A
C215       C1054   1.397       .  A
C215        H224   1.084       .  S
C216        C222   1.400       .  A
C216       C1057   1.416       .  A
C217        C219   1.401       .  A
C217        C218   1.397       .  A
C217       C1056   1.416   1_455  A
C218        H225   1.085       .  S
C219        C220   1.394       .  A
C219        H226   1.084       .  S
C220       C1061   1.402   1_455  A
C220        H227   1.084       .  S
C221        C222   1.402       .  A
C221       C1060   1.401       .  A
C222        H228   1.085       .  S
C229        C230   1.407       .  A
C229        C234   1.405       .  A
C230        C231   1.398       .  A
C230        H239   1.083       .  S
C231        C232   1.402       .  A
C231        H240   1.084       .  S
C232        C238   1.405       .  A
C232        C233   1.415       .  A
C233        C235   1.400       .  A
C233        C234   1.403       .  A
C234        H241   1.085       .  S
C235        C236   1.395       .  A
C235        H242   1.084       .  S
C236        C237   1.405       .  A
C236        H243   1.083       .  S
C237        C238   1.405       .  A
C238        H244   1.085       .  S
C245        C246   1.404       .  A
C245        C250   1.408       .  A
C246        C247   1.399       .  A
C246        H255   1.083       .  S
C247        C248   1.403       .  A
C247        H256   1.084       .  S
C248        C254   1.405       .  A
C248        C249   1.413       .  A
C249        C251   1.403       .  A
C249        C250   1.403       .  A
C250        H257   1.085       .  S
C251        C252   1.398       .  A
C251        H258   1.084       .  S
C252        C253   1.405       .  A
C252        H259   1.083       .  S
C253        C254   1.406       .  A
C254        H260   1.085       .  S
C261        C262   1.405       .  A
C261        C266   1.408       .  A
C262        C263   1.400       .  A
C262        H271   1.083       .  S
C263        C264   1.405       .  A
C263        H272   1.084       .  S
C264        C270   1.403       .  A
C264        C265   1.412       .  A
C265        C267   1.403       .  A
C265        C266   1.401       .  A
C266        H273   1.084       .  S
C267        C268   1.397       .  A
C267        H274   1.084       .  S
C268        C269   1.404       .  A
C268        H275   1.083       .  S
C269        C905   1.480   1_455  S
C269        C270   1.410       .  A
C270        H276   1.085       .  S
C277        C278   1.408       .  A
C277        C282   1.413       .  A
C278        C279   1.397       .  A
C278        H287   1.083       .  S
C279        C280   1.401       .  A
C279        H288   1.084       .  S
C280        C281   1.413       .  A
C280        C706   1.406       .  A
C281        C282   1.415       .  A
C281        C703   1.408       .  A
C282        H289   1.083       .  S
C283        C284   1.406       .  A
C283        C701   1.408   1_545  A
C283        H290   1.083       .  S
C284        C285   1.404       .  A
C284        H291   1.083       .  S
C285        C286   1.406       .  A
C286        C700   1.406       .  A
C286        H292   1.085       .  S
C293        C294   1.403       .  A
C293        C298   1.411       .  A
C294        C295   1.394       .  A
C294        H303   1.083       .  S
C295        C296   1.401       .  A
C295        H304   1.084       .  S
C296        C302   1.399       .  A
C296        C297   1.412       .  A
C297        C299   1.408       .  A
C297        C298   1.411       .  A
C298        H305   1.085       .  S
C299        C300   1.406       .  A
C299        H306   1.084       .  S
C300        C301   1.405       .  A
C300        H307   1.083       .  S
C301        C302   1.409       .  A
C302        H308   1.085       .  S
C309        C310   1.404       .  A
C309        C314   1.402       .  A
C310        C311   1.395       .  A
C310        H319   1.084       .  S
C311        C312   1.402       .  A
C311        H320   1.082       .  S
C312        C318   1.400       .  A
C312        C313   1.414       .  A
C313        C315   1.401       .  A
C313        C314   1.401       .  A
C314        H321   1.083       .  S
C315        C316   1.396       .  A
C315        H322   1.082       .  S
C316        C317   1.404       .  A
C316        H323   1.084       .  S
C317        C318   1.405       .  A
C318        H324   1.083       .  S
C325        C326   1.407       .  A
C325        C330   1.414       .  A
C326        C327   1.392       .  A
C326        H335   1.083       .  S
C327       C1168   1.399       .  A
C327        H336   1.084       .  S
C328        C334   1.400       .  A
C328        C329   1.412   1_455  A
C328       C1167   1.399   1_455  A
C329        C331   1.408   1_655  A
C329       C1170   1.414       .  A
C330       C1169   1.414       .  A
C330        H337   1.084       .  S
C331        C332   1.407       .  A
C331        H338   1.083       .  S
C332        C333   1.406       .  A
C332        H339   1.083       .  S
C333        C334   1.407       .  A
C334        H340   1.085       .  S
C341        C342   1.406       .  A
C341        C346   1.409       .  A
C342        C343   1.403       .  A
C342        H351   1.083       .  S
C343        C344   1.406       .  A
C343        H352   1.083       .  S
C344        C350   1.408       .  A
C344        C345   1.413       .  A
C345        C347   1.403       .  A
C345        C346   1.401       .  A
C346        H353   1.084       .  S
C347        C348   1.396       .  A
C347        H354   1.083       .  S
C348        C349   1.400       .  A
C348        H355   1.084       .  S
C349        C350   1.407       .  A
C350        H356   1.084       .  S
C357        C358   1.403       .  A
C357        C362   1.399       .  A
C358        C359   1.402       .  A
C358        H367   1.083       .  S
C359        C360   1.405       .  A
C359        H368   1.084       .  S
C360        C366   1.410       .  A
C360        C361   1.416       .  A
C361        C363   1.396       .  A
C361        C362   1.401       .  A
C362        H369   1.086       .  S
C363        C364   1.391       .  A
C363        H370   1.084       .  S
C364        C785   1.410   1_545  A
C364        H791   1.083   1_545  S
C365        C784   1.410       .  A
C365        C786   1.409       .  A
C366        C785   1.408   1_545  A
C366        H372   1.084   1_545  S
H371        C784   1.083       .  S
C373        C374   1.407       .  A
C373        C378   1.405       .  A
C374        C375   1.394       .  A
C374        H383   1.083       .  S
C375        C376   1.399       .  A
C375        H384   1.084       .  S
C376        C382   1.401       .  A
C376        C377   1.415       .  A
C377        C379   1.402       .  A
C377        C378   1.403       .  A
C378        H385   1.084       .  S
C379        C380   1.396       .  A
C379        H386   1.084       .  S
C380        C381   1.405       .  A
C380        H387   1.083       .  S
C381        C382   1.402       .  A
C382        H388   1.085       .  S
C389        C390   1.407       .  A
C389        C394   1.406       .  A
C390        C391   1.390       .  A
C390        H399   1.084       .  S
C391        C392   1.397       .  A
C391        H400   1.084       .  S
C392        C398   1.399       .  A
C392        C393   1.416       .  A
C393        C395   1.405       .  A
C393        C394   1.409       .  A
C394        H401   1.084       .  S
C395        C396   1.402       .  A
C395        H402   1.084       .  S
C396        C397   1.404       .  A
C396        H403   1.083       .  S
C397        C398   1.397       .  A
C398        H404   1.085       .  S
C405        C406   1.409       .  A
C405        C410   1.407       .  A
C406        C407   1.387       .  A
C406        H415   1.083       .  S
C407        C408   1.394       .  A
C407        H416   1.084       .  S
C408        C414   1.395       .  A
C408        C409   1.415       .  A
C409        C411   1.404       .  A
C409        C410   1.409       .  A
C410        H417   1.084       .  S
C411        C412   1.402       .  A
C411        H418   1.083       .  S
C412        C413   1.407       .  A
C412        H419   1.083       .  S
C413        C414   1.400       .  A
C414        H420   1.085       .  S
O421        C436   1.273       .  A
O421       Al429   1.928       .  S
C422        O432   1.271       .  A
C422        O423   1.265       .  A
C422        C833   1.476       .  S
O423       Al425   1.895       .  S
O424        C426   1.255       .  A
O424       Al425   1.903       .  S
Al425       O433   1.924       .  S
Al425       O435   1.892       .  S
Al425       O434   1.784       .  S
C426        O439   1.255       .  A
C426        C777   1.468       .  S
O427        C437   1.267       .  A
O427       Al429   1.946       .  S
O428        C441   1.263       .  A
O428       Al438   1.928       .  S
Al429       O442   1.866       .  S
Al429       O439   1.901       .  S
Al429       O434   1.785       .  S
O430        C437   1.253       .  A
O430       Al438   1.851       .  S
O431        C440   1.258       .  A
O431       Al438   1.901       .  S
O432       Al438   1.925       .  S
O433        C440   1.262       .  A
O434       Al438   1.784       .  S
O435        C436   1.270       .  A
C436        C793   1.477       .  S
C437        C809   1.478       .  S
C440        C745   1.486       .  S
C441        O442   1.254       .  A
C441        C761   1.482       .  S
O443        C458   1.263       .  A
O443       Al451   1.878       .  S
C444        O454   1.260       .  A
C444        O445   1.269       .  A
C444        C729   1.469       .  S
O445       Al447   1.928       .  S
O446        C448   1.253       .  A
O446       Al447   1.901       .  S
Al447       O455   1.882       .  S
Al447       O457   1.944       .  S
Al447       O456   1.780       .  S
C448        O461   1.252       .  A
C448        C681   1.483       .  S
O449        C459   1.261       .  A
O449       Al451   1.897       .  S
O450        C463   1.267       .  A
O450       Al460   1.927       .  S
Al451       O464   1.894       .  S
Al451       O461   1.891       .  S
Al451       O456   1.783       .  S
O452        C459   1.269       .  A
O452       Al460   1.940       .  S
O453        C462   1.262       .  A
O453       Al460   1.937       .  S
O454       Al460   1.870       .  S
O455        C462   1.254       .  A
O456       Al460   1.798       .  S
O457        C458   1.274       .  A
C458        C665   1.481       .  S
C459        C817   1.470       .  S
C462        C697   1.493       .  S
C463        O464   1.261       .  A
C463        C721   1.483       .  S
O465        C480   1.266       .  A
O465       Al473   1.900       .  S
C466        O476   1.269       .  A
C466        O467   1.267       .  A
C466        C657   1.479       .  S
O467       Al469   1.906       .  S
O468        C470   1.263       .  A
O468       Al469   1.919       .  S
Al469       O477   1.934       .  S
Al469       O479   1.919       .  S
Al469       O478   1.779       .  S
C470        O483   1.258       .  A
C470        C713   1.476       .  S
O471        C481   1.261       .  A
O471       Al473   1.909       .  S
O472        C485   1.266       .  A
O472       Al482   1.928       .  S
Al473       O486   1.883       .  S
Al473       O483   1.901       .  S
Al473       O478   1.782       .  S
O474        C481   1.256       .  A
O474       Al482   1.882       .  S
O475        C484   1.260       .  A
O475       Al482   1.912       .  S
O476       Al482   1.925       .  S
O477        C484   1.264       .  A
O478       Al482   1.774       .  S
O479        C480   1.270       .  A
C480        C825   1.478       .  S
C481        C641   1.459       .  S
C484        C705   1.483       .  S
C485        O486   1.257       .  A
C485       C1529   1.481       .  S
O487        C502   1.264       .  A
O487       Al495   1.900   1_554  S
C488        O498   1.268       .  A
C488        O489   1.262       .  A
C488        C673   1.480       .  S
O489       Al491   1.897       .  S
O490        C492   1.258       .  A
O490       Al491   1.903       .  S
Al491       O499   1.913       .  S
Al491       O501   1.899   1_556  S
Al491       O500   1.777       .  S
C492        O505   1.260       .  A
C492        C585   1.472       .  S
O493        C503   1.262       .  A
O493       Al495   1.918       .  S
O494        C507   1.266   1_556  A
O494       Al504   1.938       .  S
Al495       O508   1.886   1_556  S
Al495       O505   1.911       .  S
Al495       O500   1.785       .  S
O496        C503   1.258       .  A
O496       Al504   1.879       .  S
O497        C506   1.265       .  A
O497       Al504   1.923       .  S
O498       Al504   1.934       .  S
O499        C506   1.264       .  A
O500       Al504   1.786       .  S
O501        C502   1.265       .  A
C502        C577   1.473       .  S
C503        C633   1.459       .  S
C506        C609   1.491   1_556  S
C507        O508   1.258       .  A
C507        C625   1.487       .  S
O509        C524   1.272       .  A
O509       Al517   1.937   1_556  S
C510        O520   1.266       .  A
C510        O511   1.261       .  A
C510        C801   1.468       .  S
O511       Al513   1.890       .  S
O512        C514   1.260       .  A
O512       Al513   1.922       .  S
Al513       O521   1.934       .  S
Al513       O523   1.890   1_554  S
Al513       O522   1.776       .  S
C514        O527   1.256       .  A
C514        C617   1.472       .  S
O515        C525   1.270       .  A
O515       Al517   1.950       .  S
O516        C529   1.266       .  A
O516       Al526   1.938       .  S
Al517       O530   1.886   1_554  S
Al517       O527   1.896       .  S
Al517       O522   1.780       .  S
O518        C525   1.257       .  A
O518       Al526   1.868       .  S
O519        C528   1.266       .  A
O519       Al526   1.913       .  S
O520       Al526   1.932       .  S
O521        C528   1.268       .  A
O522       Al526   1.781       .  S
O523        C524   1.265       .  A
C524        C649   1.481       .  S
C525        C553   1.470       .  S
C528        C601   1.490       .  S
C529        O530   1.257   1_554  A
O531        C546   1.274       .  A
O531       Al539   1.933       .  S
C532        O542   1.270       .  A
C532        O533   1.266       .  A
C532        C569   1.462       .  S
O533       Al535   1.885       .  S
O534        C536   1.255       .  A
O534       Al535   1.905       .  S
Al535       O543   1.904       .  S
Al535       O545   1.891       .  S
Al535       O544   1.778       .  S
C536        O549   1.253       .  A
C536        C769   1.466       .  S
O537        C547   1.264       .  A
O537       Al539   1.926       .  S
O538        C551   1.265       .  A
O538       Al548   1.936       .  S
Al539       O552   1.859       .  S
Al539       O549   1.899       .  S
Al539       O544   1.781       .  S
O540        C547   1.255       .  A
O540       Al548   1.874       .  S
O541        C550   1.262       .  A
O541       Al548   1.925       .  S
O542       Al548   1.931       .  S
O543        C550   1.258       .  A
O544       Al548   1.788       .  S
O545        C546   1.269       .  A
C546        C737   1.476       .  S
C547        C561   1.469       .  S
C550        C753   1.485       .  S
C551        O552   1.253       .  A
C551        C785   1.484       .  S
C553        C554   1.405       .  A
C554        C555   1.396       .  A
C554        H563   1.084       .  S
C555        H564   1.084       .  S
C556        C562   1.405       .  A
C556        C557   1.418       .  A
C557        C559   1.402       .  A
C557        C558   1.406       .  A
C558        H565   1.085       .  S
C559        C560   1.397       .  A
C559        H566   1.084       .  S
C560        C561   1.405       .  A
C560        H567   1.084       .  S
C561        C562   1.401       .  A
C562        H568   1.085       .  S
C569        C570   1.402       .  A
C569        C574   1.402       .  A
C570        C571   1.395       .  A
C570        H579   1.083       .  S
C571        C572   1.403       .  A
C571        H580   1.084       .  S
C572        C578   1.397       .  A
C572        C573   1.413       .  A
C573        C575   1.402       .  A
C573        C574   1.398       .  A
C574        H581   1.085       .  S
C575        C576   1.396       .  A
C575        H582   1.084       .  S
C576        C577   1.404       .  A
C576        H583   1.083       .  S
C577        C578   1.407       .  A
C578        H584   1.085       .  S
C585        C586   1.402       .  A
C585        C590   1.406       .  A
C586        C587   1.397       .  A
C586        H595   1.084       .  S
C587        C588   1.403       .  A
C587        H596   1.084       .  S
C588        C594   1.405       .  A
C588        C589   1.414       .  A
C589        C591   1.404   1_556  A
C589        C590   1.409       .  A
C590        H597   1.084   1_556  S
C591        C592   1.402       .  A
C591        H598   1.083       .  S
C592        C593   1.406       .  A
C592        H599   1.083       .  S
C593        C594   1.410   1_554  A
C594        H600   1.084       .  S
C601        C602   1.407       .  A
C601        C606   1.408       .  A
C602        C603   1.406       .  A
C602        H611   1.083       .  S
C603        C604   1.406       .  A
C603        H612   1.083       .  S
C604        C610   1.415       .  A
C604        C605   1.413       .  A
C605        C607   1.399       .  A
C605        C606   1.404       .  A
C606        H613   1.084       .  S
C607        C608   1.394       .  A
C607        H614   1.084       .  S
C608        C609   1.409       .  A
C608        H615   1.083       .  S
C609        C610   1.412       .  A
C610        H616   1.084       .  S
C617        C618   1.402   1_554  A
C617        C622   1.403       .  A
C618        C619   1.399       .  A
C618        H627   1.083       .  S
C619        C620   1.403   1_556  A
C619        H628   1.084       .  S
C620        C626   1.408       .  A
C620        C621   1.415       .  A
C621        C623   1.401       .  A
C621        C622   1.408       .  A
C622        H629   1.085       .  S
C623        C624   1.398       .  A
C623        H630   1.084       .  S
C624       C1465   1.409       .  A
C624       H1471   1.083       .  S
C625       C1464   1.409   1_455  A
C625       C1466   1.408   1_455  A
C626       C1465   1.408       .  A
C626        H632   1.084   1_554  S
H631       C1464   1.083   1_455  S
C633        C634   1.402   1_455  A
C633        C638   1.398       .  A
C634       C1475   1.397       .  A
C634        H643   1.084       .  S
C635       C1474   1.397       .  A
C635        C636   1.403       .  A
C635        H644   1.084       .  S
C636        C642   1.401       .  A
C636       C1477   1.416       .  A
C637       C1476   1.416   1_455  A
C637        C639   1.400       .  A
C637        C638   1.397       .  A
C638        H645   1.085       .  S
C639        C640   1.393       .  A
C639        H646   1.084       .  S
C640       C1481   1.401   1_455  A
C640        H647   1.084       .  S
C641       C1480   1.401       .  A
C641        C642   1.402       .  A
C642        H648   1.085       .  S
C649        C650   1.407       .  A
C649        C654   1.405       .  A
C650        C651   1.399       .  A
C650        H659   1.083       .  S
C651        C652   1.402       .  A
C651        H660   1.084       .  S
C652        C658   1.407       .  A
C652        C653   1.415       .  A
C653        C655   1.400       .  A
C653        C654   1.403       .  A
C654        H661   1.085       .  S
C655        C656   1.394       .  A
C655        H662   1.084       .  S
C656        C657   1.406       .  A
C656        H663   1.083       .  S
C657        C658   1.407       .  A
C658        H664   1.085       .  S
C665        C666   1.404       .  A
C665        C670   1.408       .  A
C666        C667   1.401       .  A
C666        H675   1.083       .  S
C667        C668   1.405       .  A
C667        H676   1.084       .  S
C668        C674   1.406       .  A
C668        C669   1.413       .  A
C669        C671   1.403       .  A
C669        C670   1.403       .  A
C670        H677   1.085       .  S
C671        C672   1.398       .  A
C671        H678   1.084       .  S
C672        C673   1.405       .  A
C672        H679   1.083       .  S
C673        C674   1.408       .  A
C674        H680   1.085       .  S
C681        C682   1.406       .  A
C681        C686   1.408       .  A
C682        C683   1.399       .  A
C682        H691   1.083       .  S
C683        C684   1.404       .  A
C683        H692   1.084       .  S
C684        C690   1.404       .  A
C684        C685   1.412       .  A
C685        C687   1.403       .  A
C685        C686   1.403       .  A
C686        H693   1.085       .  S
C687        C688   1.398       .  A
C687        H694   1.084       .  S
C688        C689   1.404       .  A
C688        H695   1.083       .  S
C689       C1325   1.481   1_455  S
C689        C690   1.410       .  A
C690        H696   1.085       .  S
C697        C698   1.408       .  A
C697        C702   1.413       .  A
C698        C699   1.396       .  A
C698        H707   1.083       .  S
C699        C700   1.400   1_565  A
C699        H708   1.084       .  S
C700        C701   1.414   1_545  A
C701        C702   1.416       .  A
C702        H709   1.084       .  S
C703        C704   1.406       .  A
C703        H710   1.083       .  S
C704        C705   1.404       .  A
C704        H711   1.083       .  S
C705        C706   1.407       .  A
C706        H712   1.085       .  S
C713        C714   1.403       .  A
C713        C718   1.410       .  A
C714        C715   1.393       .  A
C714        H723   1.083       .  S
C715        C716   1.401       .  A
C715        H724   1.084       .  S
C716        C722   1.398       .  A
C716        C717   1.413       .  A
C717        C719   1.408       .  A
C717        C718   1.410       .  A
C718        H725   1.084       .  S
C719        C720   1.405       .  A
C719        H726   1.084       .  S
C720        C721   1.404       .  A
C720        H727   1.083       .  S
C721        C722   1.408       .  A
C722        H728   1.085       .  S
C729        C730   1.404       .  A
C729        C734   1.402       .  A
C730        C731   1.396       .  A
C730        H739   1.084       .  S
C731        C732   1.402       .  A
C731        H740   1.082       .  S
C732        C738   1.402       .  A
C732        C733   1.415       .  A
C733        C735   1.401       .  A
C733        C734   1.403       .  A
C734        H741   1.083       .  S
C735        C736   1.396       .  A
C735        H742   1.082       .  S
C736        C737   1.405       .  A
C736        H743   1.084       .  S
C737        C738   1.406       .  A
C738        H744   1.083       .  S
C745        C746   1.405       .  A
C745        C750   1.413       .  A
C746        C747   1.394       .  A
C746        H755   1.083       .  S
C747       C1588   1.401       .  A
C747        H756   1.084       .  S
C748       C1587   1.401   1_455  A
C748        C754   1.400       .  A
C748        C749   1.412   1_455  A
C749        C751   1.409   1_655  A
C749       C1590   1.412       .  A
C750       C1589   1.412       .  A
C750        H757   1.084       .  S
C751        C752   1.407       .  A
C751        H758   1.083       .  S
C752        C753   1.405       .  A
C752        H759   1.083       .  S
C753        C754   1.408       .  A
C754        H760   1.085       .  S
C761        C762   1.405       .  A
C761        C766   1.409       .  A
C762        C763   1.402       .  A
C762        H771   1.083       .  S
C763        C764   1.405       .  A
C763        H772   1.083       .  S
C764        C770   1.406       .  A
C764        C765   1.413       .  A
C765        C767   1.403       .  A
C765        C766   1.400       .  A
C766        H773   1.084       .  S
C767        C768   1.395       .  A
C767        H774   1.084       .  S
C768        C769   1.400       .  A
C768        H775   1.084       .  S
C769        C770   1.405       .  A
C770        H776   1.084       .  S
C777        C778   1.404       .  A
C777        C782   1.397       .  A
C778        C779   1.403       .  A
C778        H787   1.083       .  S
C779        C780   1.405       .  A
C779        H788   1.084       .  S
C780        C786   1.412       .  A
C780        C781   1.416       .  A
C781        C783   1.395       .  A
C781        C782   1.400       .  A
C782        H789   1.085       .  S
C783        C784   1.390       .  A
C783        H790   1.084       .  S
C786        H792   1.084       .  S
C793        C794   1.406       .  A
C793        C798   1.406       .  A
C794        C795   1.395       .  A
C794        H803   1.083       .  S
C795        C796   1.400       .  A
C795        H804   1.084       .  S
C796        C802   1.401       .  A
C796        C797   1.414       .  A
C797        C799   1.402       .  A
C797        C798   1.402       .  A
C798        H805   1.084       .  S
C799        C800   1.396       .  A
C799        H806   1.084       .  S
C800        C801   1.404       .  A
C800        H807   1.084       .  S
C801        C802   1.402       .  A
C802        H808   1.085       .  S
C809        C810   1.409       .  A
C809        C814   1.406       .  A
C810        C811   1.391       .  A
C810        H819   1.084       .  S
C811        C812   1.397       .  A
C811        H820   1.084       .  S
C812        C818   1.401       .  A
C812        C813   1.417       .  A
C813        C815   1.404       .  A
C813        C814   1.410       .  A
C814        H821   1.084       .  S
C815        C816   1.402       .  A
C815        H822   1.084       .  S
C816        C817   1.404       .  A
C816        H823   1.083       .  S
C817        C818   1.399       .  A
C818        H824   1.085       .  S
C825        C826   1.408       .  A
C825        C830   1.407       .  A
C826        C827   1.387       .  A
C826        H835   1.083       .  S
C827        C828   1.395       .  A
C827        H836   1.084       .  S
C828        C834   1.395       .  A
C828        C829   1.414       .  A
C829        C831   1.404       .  A
C829        C830   1.408       .  A
C830        H837   1.084       .  S
C831        C832   1.402       .  A
C831        H838   1.083       .  S
C832        C833   1.407       .  A
C832        H839   1.083       .  S
C833        C834   1.401       .  A
C834        H840   1.084       .  S
O841        C856   1.271       .  A
O841       Al849   1.922       .  S
C842        O852   1.271       .  A
C842        O843   1.263       .  A
C842       C1253   1.475       .  S
O843       Al845   1.891       .  S
O844        C846   1.258       .  A
O844       Al845   1.905       .  S
Al845       O853   1.919       .  S
Al845       O855   1.896       .  S
Al845       O854   1.781       .  S
C846        O859   1.257       .  A
C846       C1197   1.467       .  S
O847        C857   1.265       .  A
O847       Al849   1.941       .  S
O848        C861   1.267       .  A
O848       Al858   1.940       .  S
Al849       O862   1.870       .  S
Al849       O859   1.903       .  S
Al849       O854   1.782       .  S
O850        C857   1.253       .  A
O850       Al858   1.857       .  S
O851        C860   1.260       .  A
O851       Al858   1.908       .  S
O852       Al858   1.928       .  S
O853        C860   1.263       .  A
O854       Al858   1.781       .  S
O855        C856   1.268       .  A
C856       C1213   1.477       .  S
C857       C1229   1.476       .  S
C860       C1165   1.488       .  S
C861        O862   1.256       .  A
C861       C1181   1.486       .  S
O863        C878   1.265       .  A
O863       Al871   1.881       .  S
C864        O874   1.259       .  A
C864        O865   1.267       .  A
C864       C1149   1.466       .  S
O865       Al867   1.920       .  S
O866        C868   1.254       .  A
O866       Al867   1.907       .  S
Al867       O875   1.884       .  S
Al867       O877   1.938       .  S
Al867       O876   1.781       .  S
C868        O881   1.251       .  A
C868       C1101   1.481       .  S
O869        C879   1.261       .  A
O869       Al871   1.896       .  S
O870        C883   1.267       .  A
O870       Al880   1.929       .  S
Al871       O884   1.893       .  S
Al871       O881   1.884       .  S
Al871       O876   1.783       .  S
O872        C879   1.269       .  A
O872       Al880   1.937       .  S
O873        C882   1.262       .  A
O873       Al880   1.933       .  S
O874       Al880   1.868       .  S
O875        C882   1.256       .  A
O876       Al880   1.796       .  S
O877        C878   1.273       .  A
C878       C1085   1.479       .  S
C879       C1237   1.466       .  S
C882       C1117   1.492       .  S
C883        O884   1.260       .  A
C883       C1141   1.485       .  S
O885        C900   1.266       .  A
O885       Al893   1.898       .  S
C886        O896   1.269       .  A
C886        O887   1.267       .  A
C886       C1077   1.476       .  S
O887       Al889   1.904       .  S
O888        C890   1.264       .  A
O888       Al889   1.922       .  S
Al889       O897   1.933       .  S
Al889       O899   1.920       .  S
Al889       O898   1.778       .  S
C890        O903   1.259       .  A
C890       C1133   1.478       .  S
O891        C901   1.260       .  A
O891       Al893   1.910       .  S
O892        C905   1.266       .  A
O892       Al902   1.926       .  S
Al893       O906   1.880       .  S
Al893       O903   1.903       .  S
Al893       O898   1.782       .  S
O894        C901   1.257       .  A
O894       Al902   1.881       .  S
O895        C904   1.260       .  A
O895       Al902   1.912       .  S
O896       Al902   1.926       .  S
O897        C904   1.263       .  A
O898       Al902   1.774       .  S
O899        C900   1.270       .  A
C900       C1245   1.478       .  S
C901       C1061   1.461       .  S
C904       C1125   1.482       .  S
C905        O906   1.257       .  A
O907        C922   1.264       .  A
O907       Al915   1.900   1_554  S
C908        O918   1.267       .  A
C908        O909   1.264       .  A
C908       C1093   1.478       .  S
O909       Al911   1.900       .  S
O910        C912   1.259       .  A
O910       Al911   1.908       .  S
Al911       O919   1.908       .  S
Al911       O921   1.909   1_556  S
Al911       O920   1.775       .  S
C912        O925   1.260       .  A
C912       C1005   1.472       .  S
O913        C923   1.262       .  A
O913       Al915   1.918       .  S
O914        C927   1.267   1_556  A
O914       Al924   1.940       .  S
Al915       O928   1.882   1_556  S
Al915       O925   1.909       .  S
Al915       O920   1.782       .  S
O916        C923   1.258       .  A
O916       Al924   1.879       .  S
O917        C926   1.266       .  A
O917       Al924   1.923       .  S
O918       Al924   1.931       .  S
O919        C926   1.263       .  A
O920       Al924   1.786       .  S
O921        C922   1.266       .  A
C922        C997   1.478       .  S
C923       C1053   1.458       .  S
C926       C1029   1.489   1_556  S
C927        O928   1.257       .  A
C927       C1045   1.486       .  S
O929        C944   1.271       .  A
O929       Al937   1.933   1_556  S
C930        O940   1.266       .  A
C930        O931   1.260       .  A
C930       C1221   1.470       .  S
O931       Al933   1.887       .  S
O932        C934   1.261       .  A
O932       Al933   1.921       .  S
Al933       O941   1.932       .  S
Al933       O943   1.887   1_554  S
Al933       O942   1.775       .  S
C934        O947   1.256       .  A
C934       C1037   1.471       .  S
O935        C945   1.269       .  A
O935       Al937   1.946       .  S
O936        C949   1.265       .  A
O936       Al946   1.938       .  S
Al937       O950   1.885   1_554  S
Al937       O947   1.894       .  S
Al937       O942   1.779       .  S
O938        C945   1.258       .  A
O938       Al946   1.872       .  S
O939        C948   1.265       .  A
O939       Al946   1.911       .  S
O940       Al946   1.932       .  S
O941        C948   1.268       .  A
O942       Al946   1.781       .  S
O943        C944   1.263       .  A
C944       C1069   1.480       .  S
C945        C973   1.467       .  S
C948       C1021   1.488       .  S
C949        O950   1.257   1_554  A
C949       C1433   1.488   1_545  S
O951        C966   1.271       .  A
O951       Al959   1.924       .  S
C952        O962   1.270       .  A
C952        O953   1.266       .  A
C952        C989   1.470       .  S
O953       Al955   1.894       .  S
O954        C956   1.257       .  A
O954       Al955   1.909       .  S
Al955       O963   1.910       .  S
Al955       O965   1.894       .  S
Al955       O964   1.777       .  S
C956        O969   1.255       .  A
C956       C1189   1.468       .  S
O957        C967   1.264       .  A
O957       Al959   1.929       .  S
O958        C971   1.265       .  A
O958       Al968   1.941       .  S
Al959       O972   1.861       .  S
Al959       O969   1.902       .  S
Al959       O964   1.780       .  S
O960        C967   1.256       .  A
O960       Al968   1.875       .  S
O961        C970   1.263       .  A
O961       Al968   1.922       .  S
O962       Al968   1.929       .  S
O963        C970   1.261       .  A
O964       Al968   1.785       .  S
O965        C966   1.268       .  A
C966       C1157   1.473       .  S
C967        C981   1.469       .  S
C970       C1173   1.488       .  S
C971        O972   1.254       .  A
C971       C1205   1.485       .  S
C973        C974   1.404       .  A
C973       C1398   1.402   1_545  A
C974        C975   1.396       .  A
C974        H983   1.084       .  S
C975       C1396   1.401   1_545  A
C975        H984   1.084       .  S
C976       C1395   1.400       .  A
C976        C982   1.405       .  A
C976        C977   1.418       .  A
C977        C979   1.402       .  A
C977        C978   1.406       .  A
C978       C1393   1.402       .  A
C978        H985   1.085       .  S
C979        C980   1.397       .  A
C979        H986   1.084       .  S
C980        C981   1.404       .  A
C980        H987   1.084       .  S
C981        C982   1.401       .  A
C982        H988   1.085       .  S
C989        C990   1.403       .  A
C989        C994   1.406       .  A
C990        C991   1.393       .  A
C990        H999   1.083       .  S
C991        C992   1.401       .  A
C991       H1000   1.084       .  S
C992        C998   1.396       .  A
C992        C993   1.412       .  A
C993        C995   1.404       .  A
C993        C994   1.403       .  A
C994       H1001   1.085       .  S
C995        C996   1.400       .  A
C995       H1002   1.084       .  S
C996        C997   1.405       .  A
C996       H1003   1.083       .  S
C997        C998   1.407       .  A
C998       H1004   1.085       .  S
C1005      C1006   1.402       .  A
C1005      C1010   1.406       .  A
C1006      C1007   1.398       .  A
C1006      H1015   1.084       .  S
C1007      C1008   1.404       .  A
C1007      H1016   1.084       .  S
C1008      C1014   1.406       .  A
C1008      C1009   1.414       .  A
C1009      C1011   1.404   1_556  A
C1009      C1010   1.409       .  A
C1010      H1017   1.085   1_556  S
C1011      C1012   1.402       .  A
C1011      H1018   1.084       .  S
C1012      C1013   1.407       .  A
C1012      H1019   1.083       .  S
C1013      C1369   1.489       .  S
C1013      C1014   1.411   1_554  A
C1014      H1020   1.084       .  S
C1021      C1022   1.407       .  A
C1021      C1026   1.406       .  A
C1022      C1023   1.405       .  A
C1022      H1031   1.083       .  S
C1023      C1024   1.406       .  A
C1023      H1032   1.083   1_554  S
C1024      C1030   1.414       .  A
C1024      C1025   1.414       .  A
C1025      C1027   1.398       .  A
C1025      C1026   1.403       .  A
C1026      H1033   1.084       .  S
C1027      C1028   1.393       .  A
C1027      H1034   1.084       .  S
C1028      C1029   1.409       .  A
C1028      H1035   1.083       .  S
C1029      C1030   1.411       .  A
C1030      H1036   1.084   1_554  S
C1037      C1038   1.402   1_554  A
C1037      C1042   1.403       .  A
C1038      C1039   1.399       .  A
C1038      H1047   1.083       .  S
C1039      C1040   1.403   1_556  A
C1039      H1048   1.084       .  S
C1040      C1046   1.408       .  A
C1040      C1041   1.416       .  A
C1041      C1043   1.400       .  A
C1041      C1042   1.407       .  A
C1042      H1049   1.085       .  S
C1043      C1044   1.397       .  A
C1043      H1050   1.084       .  S
C1046      H1052   1.084   1_554  S
C1053      C1054   1.402       .  A
C1053      C1058   1.399       .  A
C1054      H1063   1.084       .  S
C1055      C1056   1.403       .  A
C1055      H1064   1.084       .  S
C1056      C1062   1.400       .  A
C1057      C1059   1.401       .  A
C1057      C1058   1.397       .  A
C1058      H1065   1.085       .  S
C1059      C1060   1.394       .  A
C1059      H1066   1.084       .  S
C1060      H1067   1.084       .  S
C1061      C1062   1.402       .  A
C1062      H1068   1.085       .  S
C1069      C1070   1.407       .  A
C1069      C1074   1.405       .  A
C1070      C1071   1.398       .  A
C1070      H1079   1.083       .  S
C1071      C1072   1.402       .  A
C1071      H1080   1.084       .  S
C1072      C1078   1.405       .  A
C1072      C1073   1.415       .  A
C1073      C1075   1.400       .  A
C1073      C1074   1.403       .  A
C1074      H1081   1.085       .  S
C1075      C1076   1.395       .  A
C1075      H1082   1.084       .  S
C1076      C1077   1.405       .  A
C1076      H1083   1.083       .  S
C1077      C1078   1.405       .  A
C1078      H1084   1.085       .  S
C1085      C1086   1.404       .  A
C1085      C1090   1.408       .  A
C1086      C1087   1.399       .  A
C1086      H1095   1.083       .  S
C1087      C1088   1.403       .  A
C1087      H1096   1.084       .  S
C1088      C1094   1.405       .  A
C1088      C1089   1.413       .  A
C1089      C1091   1.403       .  A
C1089      C1090   1.403       .  A
C1090      H1097   1.085       .  S
C1091      C1092   1.398       .  A
C1091      H1098   1.084       .  S
C1092      C1093   1.405       .  A
C1092      H1099   1.083       .  S
C1093      C1094   1.406       .  A
C1094      H1100   1.085       .  S
C1101      C1102   1.405       .  A
C1101      C1106   1.408       .  A
C1102      C1103   1.400       .  A
C1102      H1111   1.083       .  S
C1103      C1104   1.405       .  A
C1103      H1112   1.084       .  S
C1104      C1110   1.403       .  A
C1104      C1105   1.412       .  A
C1105      C1107   1.403       .  A
C1105      C1106   1.401       .  A
C1106      H1113   1.084       .  S
C1107      C1108   1.397       .  A
C1107      H1114   1.084       .  S
C1108      C1109   1.404       .  A
C1108      H1115   1.083       .  S
C1109      C1110   1.410       .  A
C1110      H1116   1.085       .  S
C1117      C1118   1.408       .  A
C1117      C1122   1.413       .  A
C1118      C1119   1.397       .  A
C1118      H1127   1.083       .  S
C1119      C1120   1.401       .  A
C1119      H1128   1.084       .  S
C1120      C1546   1.406       .  A
C1120      C1121   1.413       .  A
C1121      C1543   1.408       .  A
C1121      C1122   1.415       .  A
C1122      H1129   1.084       .  S
C1123      C1541   1.408   1_545  A
C1123      C1124   1.406       .  A
C1123      H1130   1.083       .  S
C1124      C1125   1.404       .  A
C1124      H1131   1.083       .  S
C1125      C1126   1.406       .  A
C1126      C1540   1.406       .  A
C1126      H1132   1.085       .  S
C1133      C1134   1.403       .  A
C1133      C1138   1.411       .  A
C1134      C1135   1.394       .  A
C1134      H1143   1.083       .  S
C1135      C1136   1.401       .  A
C1135      H1144   1.084       .  S
C1136      C1142   1.399       .  A
C1136      C1137   1.412       .  A
C1137      C1139   1.408       .  A
C1137      C1138   1.411       .  A
C1138      H1145   1.085       .  S
C1139      C1140   1.406       .  A
C1139      H1146   1.084       .  S
C1140      C1141   1.405       .  A
C1140      H1147   1.083       .  S
C1141      C1142   1.409       .  A
C1142      H1148   1.085       .  S
C1149      C1150   1.404       .  A
C1149      C1154   1.402       .  A
C1150      C1151   1.395       .  A
C1150      H1159   1.084       .  S
C1151      C1152   1.402       .  A
C1151      H1160   1.082       .  S
C1152      C1158   1.400       .  A
C1152      C1153   1.414       .  A
C1153      C1155   1.401       .  A
C1153      C1154   1.401       .  A
C1154      H1161   1.083       .  S
C1155      C1156   1.396       .  A
C1155      H1162   1.082       .  S
C1156      C1157   1.404       .  A
C1156      H1163   1.084       .  S
C1157      C1158   1.405       .  A
C1158      H1164   1.083       .  S
C1165      C1166   1.407       .  A
C1165      C1170   1.414       .  A
C1166      C1167   1.392       .  A
C1166      H1175   1.083       .  S
C1167      H1176   1.084   1_655  S
C1168      C1174   1.400       .  A
C1168      C1169   1.412       .  A
C1169      C1171   1.408       .  A
C1170      H1177   1.084       .  S
C1171      C1172   1.407       .  A
C1171      H1178   1.083       .  S
C1172      C1173   1.406       .  A
C1172      H1179   1.083       .  S
C1173      C1174   1.407       .  A
C1174      H1180   1.085       .  S
C1181      C1182   1.406       .  A
C1181      C1186   1.409       .  A
C1182      C1183   1.403       .  A
C1182      H1191   1.083       .  S
C1183      C1184   1.406       .  A
C1183      H1192   1.083       .  S
C1184      C1190   1.408       .  A
C1184      C1185   1.413       .  A
C1185      C1187   1.403       .  A
C1185      C1186   1.401       .  A
C1186      H1193   1.084       .  S
C1187      C1188   1.396       .  A
C1187      H1194   1.083       .  S
C1188      C1189   1.400       .  A
C1188      H1195   1.084       .  S
C1189      C1190   1.407       .  A
C1190      H1196   1.084       .  S
C1197      C1198   1.403       .  A
C1197      C1202   1.399       .  A
C1198      C1199   1.402       .  A
C1198      H1207   1.083       .  S
C1199      C1200   1.405       .  A
C1199      H1208   1.084       .  S
C1200      C1206   1.410       .  A
C1200      C1201   1.416       .  A
C1201      C1203   1.396       .  A
C1201      C1202   1.401       .  A
C1202      H1209   1.086       .  S
C1203      C1204   1.391       .  A
C1203      H1210   1.084       .  S
C1204      C1625   1.410   1_545  A
C1204      H1631   1.083   1_545  S
C1205      C1624   1.410       .  A
C1205      C1626   1.409       .  A
C1206      C1625   1.408   1_545  A
C1206      H1212   1.084   1_545  S
H1211      C1624   1.083       .  S
C1213      C1214   1.407       .  A
C1213      C1218   1.405       .  A
C1214      C1215   1.394       .  A
C1214      H1223   1.083       .  S
C1215      C1216   1.399       .  A
C1215      H1224   1.084       .  S
C1216      C1222   1.400       .  A
C1216      C1217   1.415       .  A
C1217      C1219   1.402       .  A
C1217      C1218   1.403       .  A
C1218      H1225   1.084       .  S
C1219      C1220   1.396       .  A
C1219      H1226   1.084       .  S
C1220      C1221   1.405       .  A
C1220      H1227   1.083       .  S
C1221      C1222   1.402       .  A
C1222      H1228   1.085       .  S
C1229      C1230   1.407       .  A
C1229      C1234   1.406       .  A
C1230      C1231   1.390       .  A
C1230      H1239   1.084       .  S
C1231      C1232   1.397       .  A
C1231      H1240   1.084       .  S
C1232      C1238   1.399       .  A
C1232      C1233   1.416       .  A
C1233      C1235   1.405       .  A
C1233      C1234   1.409       .  A
C1234      H1241   1.084       .  S
C1235      C1236   1.402       .  A
C1235      H1242   1.084       .  S
C1236      C1237   1.404       .  A
C1236      H1243   1.083       .  S
C1237      C1238   1.397       .  A
C1238      H1244   1.085       .  S
C1245      C1246   1.409       .  A
C1245      C1250   1.407       .  A
C1246      C1247   1.387       .  A
C1246      H1255   1.083       .  S
C1247      C1248   1.394       .  A
C1247      H1256   1.084       .  S
C1248      C1254   1.395       .  A
C1248      C1249   1.415       .  A
C1249      C1251   1.404       .  A
C1249      C1250   1.409       .  A
C1250      H1257   1.084       .  S
C1251      C1252   1.402       .  A
C1251      H1258   1.083       .  S
C1252      C1253   1.407       .  A
C1252      H1259   1.083       .  S
C1253      C1254   1.400       .  A
C1254      H1260   1.085       .  S
O1261      C1276   1.274       .  A
O1261     Al1269   1.928       .  S
C1262      O1272   1.271       .  A
C1262      O1263   1.265       .  A
C1262      C1673   1.476       .  S
O1263     Al1265   1.895       .  S
O1264      C1266   1.255       .  A
O1264     Al1265   1.903       .  S
Al1265     O1273   1.924       .  S
Al1265     O1275   1.892       .  S
Al1265     O1274   1.784       .  S
C1266      O1279   1.255       .  A
C1266      C1617   1.468       .  S
O1267      C1277   1.267       .  A
O1267     Al1269   1.946       .  S
O1268      C1281   1.263       .  A
O1268     Al1278   1.928       .  S
Al1269     O1282   1.866       .  S
Al1269     O1279   1.901       .  S
Al1269     O1274   1.785       .  S
O1270      C1277   1.253       .  A
O1270     Al1278   1.851       .  S
O1271      C1280   1.258       .  A
O1271     Al1278   1.901       .  S
O1272     Al1278   1.925       .  S
O1273      C1280   1.262       .  A
O1274     Al1278   1.784       .  S
O1275      C1276   1.270       .  A
C1276      C1633   1.477       .  S
C1277      C1649   1.478       .  S
C1280      C1585   1.486       .  S
C1281      O1282   1.254       .  A
C1281      C1601   1.482       .  S
O1283      C1298   1.263       .  A
O1283     Al1291   1.878       .  S
C1284      O1294   1.260       .  A
C1284      O1285   1.269       .  A
C1284      C1569   1.469       .  S
O1285     Al1287   1.928       .  S
O1286      C1288   1.253       .  A
O1286     Al1287   1.901       .  S
Al1287     O1295   1.882       .  S
Al1287     O1297   1.944       .  S
Al1287     O1296   1.780       .  S
C1288      O1301   1.252       .  A
C1288      C1521   1.483       .  S
O1289      C1299   1.261       .  A
O1289     Al1291   1.897       .  S
O1290      C1303   1.267       .  A
O1290     Al1300   1.927       .  S
Al1291     O1304   1.894       .  S
Al1291     O1301   1.891       .  S
Al1291     O1296   1.783       .  S
O1292      C1299   1.269       .  A
O1292     Al1300   1.940       .  S
O1293      C1302   1.262       .  A
O1293     Al1300   1.937       .  S
O1294     Al1300   1.870       .  S
O1295      C1302   1.254       .  A
O1296     Al1300   1.798       .  S
O1297      C1298   1.274       .  A
C1298      C1505   1.481       .  S
C1299      C1657   1.470       .  S
C1302      C1537   1.493       .  S
C1303      O1304   1.261       .  A
C1303      C1561   1.483       .  S
O1305      C1320   1.266       .  A
O1305     Al1313   1.900       .  S
C1306      O1316   1.269       .  A
C1306      O1307   1.267       .  A
C1306      C1497   1.479       .  S
O1307     Al1309   1.906       .  S
O1308      C1310   1.263       .  A
O1308     Al1309   1.919       .  S
Al1309     O1317   1.934       .  S
Al1309     O1319   1.919       .  S
Al1309     O1318   1.779       .  S
C1310      O1323   1.258       .  A
C1310      C1553   1.476       .  S
O1311      C1321   1.261       .  A
O1311     Al1313   1.909       .  S
O1312      C1325   1.266       .  A
O1312     Al1322   1.928       .  S
Al1313     O1326   1.883       .  S
Al1313     O1323   1.901       .  S
Al1313     O1318   1.782       .  S
O1314      C1321   1.256       .  A
O1314     Al1322   1.882       .  S
O1315      C1324   1.260       .  A
O1315     Al1322   1.912       .  S
O1316     Al1322   1.925       .  S
O1317      C1324   1.264       .  A
O1318     Al1322   1.774       .  S
O1319      C1320   1.270       .  A
C1320      C1665   1.478       .  S
C1321      C1481   1.459       .  S
C1324      C1545   1.483       .  S
C1325      O1326   1.257       .  A
O1327      C1342   1.264       .  A
O1327     Al1335   1.900   1_554  S
C1328      O1338   1.268       .  A
C1328      O1329   1.262       .  A
C1328      C1513   1.480       .  S
O1329     Al1331   1.897       .  S
O1330      C1332   1.258       .  A
O1330     Al1331   1.903       .  S
Al1331     O1339   1.913       .  S
Al1331     O1341   1.899   1_556  S
Al1331     O1340   1.777       .  S
C1332      O1345   1.260       .  A
C1332      C1425   1.472       .  S
O1333      C1343   1.262       .  A
O1333     Al1335   1.918       .  S
O1334      C1347   1.266   1_556  A
O1334     Al1344   1.938       .  S
Al1335     O1348   1.886   1_556  S
Al1335     O1345   1.911       .  S
Al1335     O1340   1.785       .  S
O1336      C1343   1.258       .  A
O1336     Al1344   1.879       .  S
O1337      C1346   1.265       .  A
O1337     Al1344   1.923       .  S
O1338     Al1344   1.934       .  S
O1339      C1346   1.264       .  A
O1340     Al1344   1.786       .  S
O1341      C1342   1.265       .  A
C1342      C1417   1.473       .  S
C1343      C1473   1.459       .  S
C1346      C1449   1.491   1_556  S
C1347      O1348   1.258       .  A
C1347      C1465   1.487       .  S
O1349      C1364   1.272       .  A
O1349     Al1357   1.937   1_556  S
C1350      O1360   1.266       .  A
C1350      O1351   1.261       .  A
C1350      C1641   1.468       .  S
O1351     Al1353   1.890       .  S
O1352      C1354   1.260       .  A
O1352     Al1353   1.922       .  S
Al1353     O1361   1.934       .  S
Al1353     O1363   1.890   1_554  S
Al1353     O1362   1.776       .  S
C1354      O1367   1.256       .  A
C1354      C1457   1.472       .  S
O1355      C1365   1.270       .  A
O1355     Al1357   1.950       .  S
O1356      C1369   1.266       .  A
O1356     Al1366   1.938       .  S
Al1357     O1370   1.886   1_554  S
Al1357     O1367   1.896       .  S
Al1357     O1362   1.780       .  S
O1358      C1365   1.257       .  A
O1358     Al1366   1.868       .  S
O1359      C1368   1.266       .  A
O1359     Al1366   1.913       .  S
O1360     Al1366   1.932       .  S
O1361      C1368   1.268       .  A
O1362     Al1366   1.781       .  S
O1363      C1364   1.265       .  A
C1364      C1489   1.481       .  S
C1365      C1393   1.470       .  S
C1368      C1441   1.490       .  S
C1369      O1370   1.257   1_554  A
O1371      C1386   1.274       .  A
O1371     Al1379   1.933       .  S
C1372      O1382   1.270       .  A
C1372      O1373   1.266       .  A
C1372      C1409   1.462       .  S
O1373     Al1375   1.885       .  S
O1374      C1376   1.255       .  A
O1374     Al1375   1.905       .  S
Al1375     O1383   1.904       .  S
Al1375     O1385   1.891       .  S
Al1375     O1384   1.778       .  S
C1376      O1389   1.253       .  A
C1376      C1609   1.466       .  S
O1377      C1387   1.264       .  A
O1377     Al1379   1.926       .  S
O1378      C1391   1.265       .  A
O1378     Al1388   1.936       .  S
Al1379     O1392   1.859       .  S
Al1379     O1389   1.899       .  S
Al1379     O1384   1.781       .  S
O1380      C1387   1.255       .  A
O1380     Al1388   1.874       .  S
O1381      C1390   1.262       .  A
O1381     Al1388   1.925       .  S
O1382     Al1388   1.931       .  S
O1383      C1390   1.258       .  A
O1384     Al1388   1.788       .  S
O1385      C1386   1.269       .  A
C1386      C1577   1.476       .  S
C1387      C1401   1.469       .  S
C1390      C1593   1.485       .  S
C1391      O1392   1.253       .  A
C1391      C1625   1.484       .  S
C1393      C1394   1.405       .  A
C1394      C1395   1.396       .  A
C1394      H1403   1.084       .  S
C1395      H1404   1.084       .  S
C1396      C1402   1.405       .  A
C1396      C1397   1.418       .  A
C1397      C1399   1.402       .  A
C1397      C1398   1.406       .  A
C1398      H1405   1.085       .  S
C1399      C1400   1.397       .  A
C1399      H1406   1.085       .  S
C1400      C1401   1.405       .  A
C1400      H1407   1.084       .  S
C1401      C1402   1.401       .  A
C1402      H1408   1.085       .  S
C1409      C1410   1.402       .  A
C1409      C1414   1.402       .  A
C1410      C1411   1.395       .  A
C1410      H1419   1.083       .  S
C1411      C1412   1.403       .  A
C1411      H1420   1.084       .  S
C1412      C1418   1.397       .  A
C1412      C1413   1.413       .  A
C1413      C1415   1.402       .  A
C1413      C1414   1.398       .  A
C1414      H1421   1.085       .  S
C1415      C1416   1.396       .  A
C1415      H1422   1.084       .  S
C1416      C1417   1.404       .  A
C1416      H1423   1.083       .  S
C1417      C1418   1.407       .  A
C1418      H1424   1.085       .  S
C1425      C1426   1.402       .  A
C1425      C1430   1.406       .  A
C1426      C1427   1.397       .  A
C1426      H1435   1.084       .  S
C1427      C1428   1.403       .  A
C1427      H1436   1.084       .  S
C1428      C1434   1.405       .  A
C1428      C1429   1.414       .  A
C1429      C1431   1.404   1_556  A
C1429      C1430   1.409       .  A
C1430      H1437   1.084   1_556  S
C1431      C1432   1.402       .  A
C1431      H1438   1.083       .  S
C1432      C1433   1.406       .  A
C1432      H1439   1.083       .  S
C1433      C1434   1.410   1_554  A
C1434      H1440   1.084       .  S
C1441      C1442   1.407       .  A
C1441      C1446   1.408       .  A
C1442      C1443   1.406       .  A
C1442      H1451   1.083       .  S
C1443      C1444   1.406       .  A
C1443      H1452   1.083       .  S
C1444      C1450   1.415       .  A
C1444      C1445   1.413       .  A
C1445      C1447   1.399       .  A
C1445      C1446   1.404       .  A
C1446      H1453   1.084       .  S
C1447      C1448   1.394       .  A
C1447      H1454   1.084       .  S
C1448      C1449   1.409       .  A
C1448      H1455   1.083       .  S
C1449      C1450   1.412       .  A
C1450      H1456   1.084       .  S
C1457      C1458   1.402   1_554  A
C1457      C1462   1.403       .  A
C1458      C1459   1.399       .  A
C1458      H1467   1.083       .  S
C1459      C1460   1.403   1_556  A
C1459      H1468   1.084       .  S
C1460      C1466   1.408       .  A
C1460      C1461   1.415       .  A
C1461      C1463   1.401       .  A
C1461      C1462   1.408       .  A
C1462      H1469   1.085       .  S
C1463      C1464   1.398       .  A
C1463      H1470   1.084       .  S
C1466      H1472   1.084   1_554  S
C1473      C1474   1.402       .  A
C1473      C1478   1.398       .  A
C1474      H1483   1.084       .  S
C1475      C1476   1.403       .  A
C1475      H1484   1.084       .  S
C1476      C1482   1.401       .  A
C1477      C1479   1.400       .  A
C1477      C1478   1.397       .  A
C1478      H1485   1.085       .  S
C1479      C1480   1.393       .  A
C1479      H1486   1.084       .  S
C1480      H1487   1.084       .  S
C1481      C1482   1.402       .  A
C1482      H1488   1.085       .  S
C1489      C1490   1.407       .  A
C1489      C1494   1.405       .  A
C1490      C1491   1.399       .  A
C1490      H1499   1.083       .  S
C1491      C1492   1.402       .  A
C1491      H1500   1.084       .  S
C1492      C1498   1.407       .  A
C1492      C1493   1.415       .  A
C1493      C1495   1.400       .  A
C1493      C1494   1.403       .  A
C1494      H1501   1.084       .  S
C1495      C1496   1.394       .  A
C1495      H1502   1.084       .  S
C1496      C1497   1.406       .  A
C1496      H1503   1.083       .  S
C1497      C1498   1.407       .  A
C1498      H1504   1.085       .  S
C1505      C1506   1.404       .  A
C1505      C1510   1.408       .  A
C1506      C1507   1.401       .  A
C1506      H1515   1.083       .  S
C1507      C1508   1.405       .  A
C1507      H1516   1.084       .  S
C1508      C1514   1.406       .  A
C1508      C1509   1.413       .  A
C1509      C1511   1.403       .  A
C1509      C1510   1.403       .  A
C1510      H1517   1.085       .  S
C1511      C1512   1.398       .  A
C1511      H1518   1.084       .  S
C1512      C1513   1.405       .  A
C1512      H1519   1.083       .  S
C1513      C1514   1.408       .  A
C1514      H1520   1.085       .  S
C1521      C1522   1.406       .  A
C1521      C1526   1.408       .  A
C1522      C1523   1.399       .  A
C1522      H1531   1.083       .  S
C1523      C1524   1.404       .  A
C1523      H1532   1.084       .  S
C1524      C1530   1.404       .  A
C1524      C1525   1.412       .  A
C1525      C1527   1.403       .  A
C1525      C1526   1.403       .  A
C1526      H1533   1.085       .  S
C1527      C1528   1.398       .  A
C1527      H1534   1.084       .  S
C1528      C1529   1.404       .  A
C1528      H1535   1.083       .  S
C1529      C1530   1.410       .  A
C1530      H1536   1.085       .  S
C1537      C1538   1.408       .  A
C1537      C1542   1.413       .  A
C1538      C1539   1.396       .  A
C1538      H1547   1.083       .  S
C1539      C1540   1.400   1_565  A
C1539      H1548   1.084       .  S
C1540      C1541   1.414   1_545  A
C1541      C1542   1.416       .  A
C1542      H1549   1.084       .  S
C1543      C1544   1.406       .  A
C1543      H1550   1.083       .  S
C1544      C1545   1.404       .  A
C1544      H1551   1.083       .  S
C1545      C1546   1.407       .  A
C1546      H1552   1.085       .  S
C1553      C1554   1.403       .  A
C1553      C1558   1.410       .  A
C1554      C1555   1.393       .  A
C1554      H1563   1.083       .  S
C1555      C1556   1.401       .  A
C1555      H1564   1.084       .  S
C1556      C1562   1.398       .  A
C1556      C1557   1.413       .  A
C1557      C1559   1.408       .  A
C1557      C1558   1.410       .  A
C1558      H1565   1.084       .  S
C1559      C1560   1.405       .  A
C1559      H1566   1.084       .  S
C1560      C1561   1.404       .  A
C1560      H1567   1.083       .  S
C1561      C1562   1.408       .  A
C1562      H1568   1.085       .  S
C1569      C1570   1.404       .  A
C1569      C1574   1.402       .  A
C1570      C1571   1.396       .  A
C1570      H1579   1.084       .  S
C1571      C1572   1.402       .  A
C1571      H1580   1.082       .  S
C1572      C1578   1.402       .  A
C1572      C1573   1.415       .  A
C1573      C1575   1.401       .  A
C1573      C1574   1.403       .  A
C1574      H1581   1.083       .  S
C1575      C1576   1.396       .  A
C1575      H1582   1.082       .  S
C1576      C1577   1.405       .  A
C1576      H1583   1.084       .  S
C1577      C1578   1.406       .  A
C1578      H1584   1.083       .  S
C1585      C1586   1.405       .  A
C1585      C1590   1.413       .  A
C1586      C1587   1.394       .  A
C1586      H1595   1.083       .  S
C1587      H1596   1.084   1_655  S
C1588      C1594   1.400       .  A
C1588      C1589   1.412       .  A
C1589      C1591   1.409       .  A
C1590      H1597   1.084       .  S
C1591      C1592   1.407       .  A
C1591      H1598   1.083       .  S
C1592      C1593   1.405       .  A
C1592      H1599   1.083       .  S
C1593      C1594   1.408       .  A
C1594      H1600   1.085       .  S
C1601      C1602   1.405       .  A
C1601      C1606   1.409       .  A
C1602      C1603   1.402       .  A
C1602      H1611   1.083       .  S
C1603      C1604   1.405       .  A
C1603      H1612   1.083       .  S
C1604      C1610   1.406       .  A
C1604      C1605   1.413       .  A
C1605      C1607   1.403       .  A
C1605      C1606   1.400       .  A
C1606      H1613   1.084       .  S
C1607      C1608   1.395       .  A
C1607      H1614   1.084       .  S
C1608      C1609   1.400       .  A
C1608      H1615   1.084       .  S
C1609      C1610   1.405       .  A
C1610      H1616   1.084       .  S
C1617      C1618   1.404       .  A
C1617      C1622   1.397       .  A
C1618      C1619   1.403       .  A
C1618      H1627   1.083       .  S
C1619      C1620   1.405       .  A
C1619      H1628   1.084       .  S
C1620      C1626   1.412       .  A
C1620      C1621   1.416       .  A
C1621      C1623   1.395       .  A
C1621      C1622   1.400       .  A
C1622      H1629   1.085       .  S
C1623      C1624   1.390       .  A
C1623      H1630   1.084       .  S
C1626      H1632   1.084       .  S
C1633      C1634   1.406       .  A
C1633      C1638   1.406       .  A
C1634      C1635   1.395       .  A
C1634      H1643   1.083       .  S
C1635      C1636   1.400       .  A
C1635      H1644   1.084       .  S
C1636      C1642   1.401       .  A
C1636      C1637   1.414       .  A
C1637      C1639   1.402       .  A
C1637      C1638   1.402       .  A
C1638      H1645   1.084       .  S
C1639      C1640   1.396       .  A
C1639      H1646   1.084       .  S
C1640      C1641   1.404       .  A
C1640      H1647   1.084       .  S
C1641      C1642   1.402       .  A
C1642      H1648   1.085       .  S
C1649      C1650   1.409       .  A
C1649      C1654   1.406       .  A
C1650      C1651   1.391       .  A
C1650      H1659   1.084       .  S
C1651      C1652   1.397       .  A
C1651      H1660   1.084       .  S
C1652      C1658   1.401       .  A
C1652      C1653   1.417       .  A
C1653      C1655   1.404       .  A
C1653      C1654   1.410       .  A
C1654      H1661   1.084       .  S
C1655      C1656   1.402       .  A
C1655      H1662   1.084       .  S
C1656      C1657   1.404       .  A
C1656      H1663   1.083       .  S
C1657      C1658   1.399       .  A
C1658      H1664   1.085       .  S
C1665      C1666   1.408       .  A
C1665      C1670   1.407       .  A
C1666      C1667   1.387       .  A
C1666      H1675   1.083       .  S
C1667      C1668   1.395       .  A
C1667      H1676   1.084       .  S
C1668      C1674   1.395       .  A
C1668      C1669   1.414       .  A
C1669      C1671   1.404       .  A
C1669      C1670   1.408       .  A
C1670      H1677   1.084       .  S
C1671      C1672   1.402       .  A
C1671      H1678   1.083       .  S
C1672      C1673   1.407       .  A
C1672      H1679   1.083       .  S
C1673      C1674   1.401       .  A
C1674      H1680   1.085       .  S
