geometry optimzed in LAMMPS
_audit_creation_date              2020-12-01 
_audit_creation_method            'lammps2cif' 
_symmetry_space_group_name_H-M    'P1' 
_symmetry_Int_Tables_number       1 
_symmetry_cell_setting            triclinic 
loop_ 
_symmetry_equiv_pos_as_xyz 
  x,y,z 
_cell_length_a                    46.70694662 
_cell_length_b                    46.77399591941204 
_cell_length_c                    30.327574926898805 
_cell_angle_alpha                 90.01315558543504 
_cell_angle_beta                  90.10774129190177 
_cell_angle_gamma                 120.03049466523026 
loop_ 
_atom_site_label 
_atom_site_type_symbol 
_atom_site_fract_x 
_atom_site_fract_y 
_atom_site_fract_z 
_atom_site_charge 
O1          O  0.82317152  0.28817205  0.33896269    -0.86800
O2          O  0.87528853  0.27877411  0.35512506    -0.83900
C3          C  0.89558232  0.26917700  0.34752704     0.96600
O4          O  0.90728744  0.27136264  0.30893044    -0.83900
O5          O  0.85925583  0.22802801  0.25280198    -0.86600
C6          C  0.83745951  0.21610508  0.22345113     1.01100
O7          O  0.82171984  0.23109086  0.21398846    -0.79300
O8          O  0.79819900  0.24518728  0.29428452    -0.79500
C9          C  0.79861217  0.25992484  0.32950837     1.01100
O10         O  0.86815002  0.34403444  0.28291432    -0.86800
O11         O  0.92042366  0.33756878  0.30746066    -0.83900
C12         C  0.93527804  0.34266689  0.27089399     0.96600
O13         O  0.92311747  0.32169521  0.24086447    -0.83900
O14         O  0.87976702  0.27921932  0.18492217    -0.86500
C15         C  0.86721942  0.29601256  0.17026782     1.01100
O16         O  0.84605128  0.29881932  0.19239544    -0.79400
O17         O  0.81720900  0.31022293  0.26308779    -0.79500
C18         C  0.84042498  0.33936041  0.27134527     1.01100
Cr19       Cr  0.87092755  0.31035640  0.31773365     1.93700
Cr20       Cr  0.89028759  0.27550475  0.24886546     1.93200
Cr21       Cr  0.82315553  0.27170392  0.24303805     1.39100
O22         O  0.86125697  0.28515875  0.27055287    -1.24600
O23         O  0.95960328  0.14954275  0.49979697    -0.86800
O24         O  0.94839202  0.20071898  0.48615712    -0.83900
C25         C  0.94000814  0.22185882  0.49417149     0.96600
O26         O  0.94345492  0.23388326  0.53283793    -0.83900
O27         O  0.89938179  0.18479116  0.58696090    -0.86600
C28         C  0.88689249  0.16218700  0.61507280     1.01100
O29         O  0.90189962  0.14636870  0.62444517    -0.79300
O30         O  0.91683676  0.12377378  0.54439694    -0.79500
C31         C  0.93161440  0.12463687  0.50909768     1.01100
O32         O  0.01539465  0.19467475  0.55553835    -0.86800
O33         O  0.00778307  0.24642366  0.53352738    -0.83900
C34         C  0.01353944  0.26048445  0.57088409     0.96600
O35         O  0.99322082  0.24730987  0.60134918    -0.83900
O36         O  0.94962883  0.20367853  0.65561220    -0.86500
C37         C  0.96689465  0.19158281  0.66986277     1.01100
O38         O  0.97006211  0.17080579  0.64735264    -0.79400
O39         O  0.98255292  0.14358610  0.57547274    -0.79500
C40         C  0.01146017  0.16721584  0.56664341     1.01100
Cr41       Cr  0.98105962  0.19697335  0.52199551     1.93700
Cr42       Cr  0.94683868  0.21541569  0.59220116     1.93200
Cr43       Cr  0.94319484  0.14842089  0.59600824     1.39100
O44         O  0.95630704  0.18662716  0.56946657    -1.24600
O45         O  0.86266781  0.37036176  0.83542187    -0.86800
O46         O  0.92435932  0.38055079  0.81888791    -0.83900
C47         C  0.95410716  0.38923191  0.82604306     0.96600
O48         O  0.96370782  0.38664737  0.86444466    -0.83900
O49         O  0.96022906  0.43094670  0.92066019    -0.86600
C50         C  0.95026412  0.44301215  0.94969498     1.01100
O51         O  0.91953281  0.42779759  0.95952632    -0.79300
O52         O  0.88053814  0.41307060  0.88046609    -0.79500
C53         C  0.86594846  0.39834766  0.84532625     1.01100
O54         O  0.85279808  0.31460671  0.89095601    -0.86800
O55         O  0.91164386  0.32177521  0.86601892    -0.83900
C56         C  0.92126010  0.31651541  0.90269311     0.96600
O57         O  0.92919806  0.33703968  0.93312176    -0.83900
O58         O  0.93025951  0.38049450  0.98870970    -0.86500
C59         C  0.90126079  0.36402813  0.00435213     1.01100
O60         O  0.87661906  0.36006510  0.98252093    -0.79400
O61         O  0.83522679  0.34777918  0.91157822    -0.79500
C62         C  0.82946068  0.31888256  0.90195052     1.01100
Cr63       Cr  0.88880601  0.34858911  0.85617089     1.93700
Cr64       Cr  0.94332959  0.38332997  0.92470620     1.93200
Cr65       Cr  0.87988147  0.38675097  0.93148277     1.39100
O66         O  0.90449399  0.37370579  0.90342306    -1.24600
O67         O  0.13667726  0.50720908  0.67165335    -0.86800
O68         O  0.07408448  0.45631263  0.68623098    -0.83900
C69         C  0.04460067  0.43457299  0.67884201     0.96600
O70         O  0.03580939  0.42168338  0.64069671    -0.83900
O71         O  0.04020542  0.46968737  0.58467865    -0.86600
C72         C  0.05054221  0.49209753  0.55621077     1.01100
O73         O  0.08129817  0.50758472  0.54661294    -0.79300
O74         O  0.11994974  0.53211191  0.62515749    -0.79500
C75         C  0.13369187  0.53191936  0.66101306     1.01100
O76         O  0.14739176  0.46103103  0.61891473    -0.86800
O77         O  0.08770011  0.40975577  0.64166463    -0.83900
C78         C  0.07930146  0.39486542  0.60486629     0.96600
O79         O  0.07158759  0.40700987  0.57357635    -0.83900
O80         O  0.07039473  0.44921967  0.51698532    -0.86500
C81         C  0.09945152  0.46185499  0.50156252     1.01100
O82         O  0.12395292  0.48230344  0.52381788    -0.79400
O83         O  0.16502268  0.51115631  0.59498468    -0.79500
C84         C  0.17061000  0.48807907  0.60577519     1.01100
Cr85       Cr  0.11050323  0.45935353  0.65120622     1.93700
Cr86       Cr  0.05706533  0.43901317  0.58095926     1.93200
Cr87       Cr  0.12065267  0.50593535  0.57471161     1.39100
O88         O  0.09573864  0.46840385  0.60277291    -1.24600
O89         O  0.04395848  0.19184777  0.00365621    -0.86800
O90         O  0.05522291  0.25433869  0.01882840    -0.83900
C91         C  0.06324885  0.28386236  0.01142338     0.96600
O92         O  0.05981369  0.29276169  0.97294896    -0.83900
O93         O  0.10410401  0.28864841  0.91775703    -0.86600
C94         C  0.11648713  0.27851343  0.88945138     1.01100
O95         O  0.10150968  0.24777072  0.87992265    -0.79300
O96         O  0.08668973  0.20974515  0.95896882    -0.79500
C97         C  0.07190698  0.19496397  0.99379123     1.01100
O98         O  0.98799916  0.18197953  0.94831884    -0.86800
O99         O  0.99595581  0.24126991  0.97221373    -0.83900
C100        C  0.98993603  0.24997919  0.93534454     0.96600
O101        O  0.00993542  0.25727219  0.90436778    -0.83900
O102        O  0.05382256  0.25792999  0.84912143    -0.86500
C103        C  0.03760816  0.22874552  0.83390883     1.01100
O104        O  0.03387637  0.20456456  0.85632610    -0.79400
O105        O  0.02100624  0.16416074  0.92738423    -0.79500
C106        C  0.99206268  0.15867954  0.93638610     1.01100
Cr107      Cr  0.02251621  0.21825626  0.98247655     1.93700
Cr108      Cr  0.05649328  0.27169119  0.91298561     1.93200
Cr109      Cr  0.06035361  0.20846667  0.90769951     1.39100
O110        O  0.04715260  0.23322548  0.93491981    -1.24600
O111        O  0.18063990  0.46648825  0.16655449    -0.86800
O112        O  0.12909517  0.40454970  0.15107362    -0.83900
C113        C  0.10766365  0.37503898  0.15859408     0.96600
O114        O  0.09534747  0.36613979  0.19699659    -0.83900
O115        O  0.14366940  0.37018435  0.25199599    -0.86600
C116        C  0.16611456  0.38008600  0.28046626     1.01100
O117        O  0.18175484  0.41075324  0.29070439    -0.79300
O118        O  0.20588550  0.44938929  0.21213814    -0.79500
C119        C  0.20533703  0.46324098  0.17660059     1.01100
O120        O  0.13525383  0.47732123  0.22098831    -0.86800
O121        O  0.08342260  0.41833555  0.19781196    -0.83900
C122        C  0.06912811  0.41001283  0.23494881     0.96600
O123        O  0.08168452  0.40211508  0.26547968    -0.83900
O124        O  0.12422158  0.40082852  0.32086118    -0.86500
C125        C  0.13603527  0.42998957  0.33570253     1.01100
O126        O  0.15703311  0.45418459  0.31372533    -0.79400
O127        O  0.18590877  0.49495844  0.24293519    -0.79500
C128        C  0.16265005  0.50057598  0.23309190     1.01100
Cr129      Cr  0.13294806  0.44074917  0.18740184     1.93700
Cr130      Cr  0.11327344  0.38727429  0.25686720     1.93200
Cr131      Cr  0.18036302  0.45042839  0.26294132     1.39100
O132        O  0.14255515  0.42572949  0.23505213    -1.24600
O133        O  0.20657092  0.74680984  0.71183339    -0.86800
O134        O  0.18307620  0.76242905  0.79021594    -0.83900
C135        C  0.16827719  0.77823725  0.77967599     0.96600
O136        O  0.14607619  0.76629642  0.75083933    -0.83900
O137        O  0.09661131  0.72244843  0.69660570    -0.86600
C138        C  0.10895104  0.72563533  0.65830743     1.01100
O139        O  0.13023070  0.71733629  0.65108508    -0.79300
O140        O  0.18048476  0.70493747  0.66581225    -0.79500
C141        C  0.20583853  0.73235174  0.67626291     1.01100
O142        O  0.18451014  0.68083524  0.74264786    -0.86800
O143        O  0.15654062  0.69420720  0.81342131    -0.83900
C144        C  0.13678757  0.69908202  0.83585906     0.96600
O145        O  0.12514119  0.71645137  0.82051830    -0.83900
O146        O  0.08158794  0.67315699  0.76517097    -0.86500
C147        C  0.06852038  0.65276422  0.73463945     1.01100
O148        O  0.08296196  0.65811099  0.69757584    -0.79400
O149        O  0.13382668  0.64893601  0.71984872    -0.79500
C150        C  0.16081992  0.65226798  0.73247273     1.01100
Cr151      Cr  0.18038583  0.72069756  0.76253624     1.93700
Cr152      Cr  0.11440328  0.71911798  0.75634695     1.93200
Cr153      Cr  0.13270657  0.68407472  0.68686284     1.39100
O154        O  0.14280258  0.70856930  0.73468285    -1.24600
O155        O  0.08586271  0.86608752  0.45449239    -0.86800
O156        O  0.09850615  0.84018513  0.37631193    -0.83900
C157        C  0.11389630  0.82489224  0.38644146     0.96600
O158        O  0.10191508  0.80283428  0.41540970    -0.83900
O159        O  0.05831933  0.75588926  0.47274146    -0.86600
C160        C  0.06233522  0.76896507  0.51074839     1.01100
O161        O  0.05463696  0.79069871  0.51781351    -0.79300
O162        O  0.04452457  0.84217414  0.50167643    -0.79500
C163        C  0.07223587  0.86667185  0.49019932     1.01100
O164        O  0.01976039  0.84578095  0.42603084    -0.86800
O165        O  0.02983846  0.81501221  0.35568563    -0.83900
C166        C  0.03306256  0.79403302  0.33371106     0.96600
O167        O  0.05040860  0.78221138  0.34852316    -0.83900
O168        O  0.00747410  0.74085669  0.40582992    -0.86500
C169        C  0.98758658  0.72898016  0.43703202     1.01100
O170        O  0.99413081  0.74416723  0.47360782    -0.79400
O171        O  0.98676820  0.79567606  0.44917130    -0.79500
C172        C  0.99104405  0.82311341  0.43739264     1.01100
Cr173      Cr  0.05807707  0.83946199  0.40505914     1.93700
Cr174      Cr  0.05414389  0.77254012  0.41260312     1.93200
Cr175      Cr  0.02169582  0.79391441  0.48222842     1.39100
O176        O  0.04547582  0.80233060  0.43399773    -1.24600
O177        O  0.79613958  0.54279209  0.79252122    -0.86800
O178        O  0.81969150  0.58004709  0.71302976    -0.83900
C179        C  0.83574611  0.61081402  0.72267353     0.96600
O180        O  0.85900195  0.62101102  0.74999897    -0.83900
O181        O  0.90765226  0.62462561  0.80413981    -0.86600
C182        C  0.89533197  0.61668847  0.84261326     1.01100
O183        O  0.87300031  0.58766099  0.85075401    -0.79300
O184        O  0.82109396  0.52550599  0.83816473    -0.79500
C185        C  0.79669047  0.52934692  0.82841687     1.01100
O186        O  0.81493787  0.49596779  0.76233335    -0.86800
O187        O  0.84298791  0.53537747  0.69002625    -0.83900
C188        C  0.86397909  0.55922367  0.66751033     0.96600
O189        O  0.87652042  0.58855103  0.68186057    -0.83900
O190        O  0.91939673  0.58688162  0.73680277    -0.86500
C191        C  0.93283852  0.58102100  0.76833532     1.01100
O192        O  0.91835408  0.57283844  0.80541426    -0.79400
O193        O  0.86561179  0.51307885  0.78416600    -0.79500
C194        C  0.83795679  0.49000363  0.77234979     1.01100
Cr195      Cr  0.82074804  0.54038642  0.74133493     1.93700
Cr196      Cr  0.88856201  0.60281933  0.74516471     1.93200
Cr197      Cr  0.86869942  0.55059871  0.81629849     1.39100
O198        O  0.85901177  0.56495857  0.76813206    -1.24600
O199        O  0.91837235  0.78028927  0.04226362    -0.86800
O200        O  0.90389577  0.74122122  0.11982345    -0.83900
C201        C  0.88906909  0.71064807  0.10930416     0.96600
O202        O  0.90197630  0.70097587  0.08104910    -0.83900
O203        O  0.94766460  0.69925011  0.02587275    -0.86600
C204        C  0.94451017  0.70859197  0.98769421     1.01100
O205        O  0.95257005  0.73813456  0.98054291    -0.79300
O206        O  0.96121401  0.79927919  0.99748315    -0.79500
C207        C  0.93264420  0.79466495  0.00698882     1.01100
O208        O  0.98352657  0.82668019  0.07462951    -0.86800
O209        O  0.97132886  0.78464246  0.14482486    -0.83900
C210        C  0.96736749  0.75990667  0.16627334     0.96600
O211        O  0.95153498  0.73113266  0.14994805    -0.83900
O212        O  0.99660779  0.73424287  0.09495665    -0.86500
C213        C  0.01767201  0.74373489  0.06496556     1.01100
O214        O  0.01184818  0.75259234  0.02812604    -0.79400
O215        O  0.01759482  0.81047779  0.05304877    -0.79500
C216        C  0.01272684  0.83321856  0.06504833     1.01100
Cr217      Cr  0.94486381  0.78143811  0.09336201     1.93700
Cr218      Cr  0.94991342  0.71897379  0.08595859     1.93200
Cr219      Cr  0.98397430  0.77408932  0.01812203     1.39100
O220        O  0.95883264  0.75769767  0.06516668    -1.24600
O221        O  0.12097659  0.57894800  0.12549837    -0.86800
O222        O  0.08247018  0.56506127  0.04675621    -0.83900
C223        C  0.05174431  0.55011377  0.05654915     0.96600
O224        O  0.04163423  0.56292728  0.08433821    -0.83900
O225        O  0.03922852  0.60783953  0.14069593    -0.86600
C226        C  0.04839738  0.60504265  0.17930010     1.01100
O227        O  0.07794382  0.61306335  0.18687779    -0.79300
O228        O  0.13924265  0.62144351  0.17095009    -0.79500
C229        C  0.13538740  0.59326641  0.16088406     1.01100
O230        O  0.16753582  0.64407503  0.09418110    -0.86800
O231        O  0.12666517  0.63291723  0.02372638    -0.83900
C232        C  0.10264741  0.63040893  0.00182240     0.96600
O233        O  0.07339722  0.61379586  0.01669011    -0.83900
O234        O  0.07543255  0.65752150  0.07251571    -0.86500
C235        C  0.08464186  0.67849427  0.10256989     1.01100
O236        O  0.09315336  0.67257872  0.13962774    -0.79400
O237        O  0.15106840  0.67792514  0.11585468    -0.79500
C238        C  0.17378745  0.67321656  0.10314422     1.01100
Cr239      Cr  0.12247121  0.60570883  0.07458483     1.93700
Cr240      Cr  0.05993858  0.61089954  0.08065961     1.93200
Cr241      Cr  0.11432751  0.64437923  0.14997055     1.39100
O242        O  0.09837310  0.61946324  0.10249956    -1.24600
O243        O  0.88252988  0.45890845  0.37666345    -0.86800
O244        O  0.91987080  0.48189871  0.45614248    -0.83900
C245        C  0.95069417  0.49765578  0.44683269     0.96600
O246        O  0.96108868  0.52056261  0.41909450    -0.83900
O247        O  0.96559765  0.56973510  0.36492705    -0.86600
C248        C  0.95723654  0.55774462  0.32619844     1.01100
O249        O  0.92794929  0.53581378  0.31820688    -0.79300
O250        O  0.86558907  0.48417744  0.33108171    -0.79500
C251        C  0.86847242  0.45931460  0.34124181     1.01100
O252        O  0.83620430  0.47814537  0.40663514    -0.86800
O253        O  0.87600697  0.50587899  0.47915472    -0.83900
C254        C  0.90005804  0.52604635  0.50225250     0.96600
O255        O  0.92940773  0.53878860  0.48769300    -0.83900
O256        O  0.92855020  0.58201761  0.43308042    -0.86500
C257        C  0.92125289  0.59497328  0.40242694     1.01100
O258        O  0.91339309  0.58104003  0.36493194    -0.79400
O259        O  0.85385155  0.52890684  0.38574394    -0.79500
C260        C  0.83046171  0.50124084  0.39650703     1.01100
Cr261      Cr  0.88054335  0.48356030  0.42778295     1.93700
Cr262      Cr  0.94373190  0.55075180  0.42416071     1.93200
Cr263      Cr  0.89111588  0.53166354  0.35325116     1.39100
O264        O  0.90551550  0.52168644  0.40116793    -1.24600
O265        O  0.71087869  0.52573250  0.33165096    -0.86800
O266        O  0.72402308  0.58834710  0.34910876    -0.83900
C267        C  0.73323678  0.61821462  0.34244362     0.96600
O268        O  0.73086942  0.62804121  0.30428161    -0.83900
O269        O  0.77260151  0.62006788  0.24795839    -0.86600
C270        C  0.78277658  0.60973549  0.21697649     1.01100
O271        O  0.76531538  0.57944298  0.20528746    -0.79300
O272        O  0.75025326  0.53885850  0.28209099    -0.79500
C273        C  0.73739755  0.52668590  0.31908076     1.01100
O274        O  0.65366998  0.51746354  0.28044887    -0.86800
O275        O  0.66454830  0.57730547  0.30364212    -0.83900
C276        C  0.65955882  0.58749870  0.26720220     0.96600
O277        O  0.68042641  0.59636855  0.23704174    -0.83900
O278        O  0.72179033  0.59446153  0.17990362    -0.86500
C279        C  0.70116700  0.56629254  0.16469075     1.01100
O280        O  0.69512927  0.54048008  0.18506239    -0.79400
O281        O  0.68320310  0.49738524  0.25375124    -0.79500
C282        C  0.65534475  0.49349169  0.26540808     1.01100
Cr283      Cr  0.69005301  0.55308066  0.31283872     1.93700
Cr284      Cr  0.72588756  0.60713410  0.24422072     1.93200
Cr285      Cr  0.72325238  0.54101434  0.23364839     1.39100
O286        O  0.71375380  0.56737346  0.26439218    -1.24600
O287        O  0.84809585  0.79942562  0.50354536    -0.86800
O288        O  0.79775678  0.73756941  0.48492235    -0.83900
C289        C  0.77686800  0.70768316  0.49117896     0.96600
O290        O  0.76398307  0.69781075  0.52897167    -0.83900
O291        O  0.81273950  0.70386812  0.58566657    -0.86600
C292        C  0.83314344  0.71353315  0.61685707     1.01100
O293        O  0.84660761  0.74371415  0.62907210    -0.79300
O294        O  0.87321383  0.78436019  0.55253085    -0.79500
C295        C  0.87314327  0.79745102  0.51598817     1.01100
O296        O  0.80021930  0.80895878  0.55494168    -0.86800
O297        O  0.75001874  0.74955986  0.52999859    -0.83900
C298        C  0.73447085  0.73922344  0.56608446     0.96600
O299        O  0.74597848  0.72991851  0.59644718    -0.83900
O300        O  0.78849936  0.73000352  0.65389155    -0.86500
C301        C  0.79733792  0.75827157  0.66980152     1.01100
O302        O  0.81741360  0.78404754  0.64956684    -0.79400
O303        O  0.84987390  0.82701840  0.58092621    -0.79500
C304        C  0.82701290  0.83236000  0.56851435     1.01100
Cr305      Cr  0.79977914  0.77292470  0.52172195     1.93700
Cr306      Cr  0.77986847  0.71798503  0.58939270     1.93200
Cr307      Cr  0.84451843  0.78289489  0.60098839     1.39100
O308        O  0.80839799  0.75763045  0.56991563    -1.24600
O309        O  0.80270819  0.84262971  0.00294318    -0.86800
O310        O  0.73942483  0.79346644  0.01756292    -0.83900
C311        C  0.71032639  0.77070048  0.01083227     0.96600
O312        O  0.70183583  0.75717801  0.97311420    -0.83900
O313        O  0.70819280  0.80585952  0.91586911    -0.86600
C314        C  0.71878974  0.82702245  0.88563829     1.01100
O315        O  0.74943211  0.84085114  0.87497692    -0.79300
O316        O  0.78973561  0.86786324  0.95174786    -0.79500
C317        C  0.80185648  0.86788899  0.98911880     1.01100
O318        O  0.81271547  0.79391470  0.95590667    -0.86800
O319        O  0.75217619  0.74462146  0.97698010    -0.83900
C320        C  0.74435686  0.72944225  0.94030476     0.96600
O321        O  0.73713871  0.74127256  0.90810946    -0.83900
O322        O  0.73633272  0.78291881  0.84962748    -0.86500
C323        C  0.76480803  0.79133950  0.83503307     1.01100
O324        O  0.79016967  0.81108382  0.85635979    -0.79400
O325        O  0.83199528  0.84259893  0.92588738    -0.79500
C326        C  0.83633197  0.81934653  0.93970212     1.01100
Cr327      Cr  0.77587632  0.79444412  0.98496392     1.93700
Cr328      Cr  0.72337033  0.77385431  0.91360824     1.93200
Cr329      Cr  0.78842417  0.83846675  0.90424828     1.39100
O330        O  0.76234502  0.80276299  0.93495573    -1.24600
O331        O  0.53013669  0.70476201  0.16590229    -0.86800
O332        O  0.59147570  0.71417963  0.15083509    -0.83900
C333        C  0.62099160  0.72224021  0.15836192     0.96600
O334        O  0.63023224  0.71926705  0.19681384    -0.83900
O335        O  0.62653917  0.76352495  0.25240744    -0.86600
C336        C  0.61657661  0.77591262  0.28093515     1.01100
O337        O  0.58586527  0.76085369  0.29076593    -0.79300
O338        O  0.54832551  0.74726883  0.21132482    -0.79500
C339        C  0.53393193  0.73292294  0.17596165     1.01100
O340        O  0.51881540  0.64824669  0.22090370    -0.86800
O341        O  0.57772825  0.65509248  0.19723008    -0.83900
C342        C  0.58688351  0.64940370  0.23396713     0.96600
O343        O  0.59440547  0.66947609  0.26486733    -0.83900
O344        O  0.59526987  0.71289389  0.32028188    -0.86500
C345        C  0.56591639  0.69562668  0.33451303     1.01100
O346        O  0.54190534  0.69277551  0.31230106    -0.79400
O347        O  0.50167333  0.68183377  0.24128819    -0.79500
C348        C  0.49569566  0.65280243  0.23212656     1.01100
Cr349      Cr  0.55541103  0.68224043  0.18700699     1.93700
Cr350      Cr  0.60920434  0.71592209  0.25661430     1.93200
Cr351      Cr  0.54631663  0.72028000  0.26201652     1.39100
O352        O  0.57081161  0.70693201  0.23451890    -1.24600
O353        O  0.48865693  0.61961673  0.66806128    -0.86800
O354        O  0.53895032  0.60750873  0.68234221    -0.83900
C355        C  0.56065088  0.59976928  0.67529938     0.96600
O356        O  0.57326134  0.60327493  0.63713935    -0.83900
O357        O  0.52404422  0.55906618  0.58272904    -0.86600
C358        C  0.50203370  0.54706719  0.55361805     1.01100
O359        O  0.48653758  0.56231368  0.54370216    -0.79300
O360        O  0.46297576  0.57738385  0.62257381    -0.79500
C361        C  0.46380833  0.59170538  0.65829463     1.01100
O362        O  0.53503070  0.67566905  0.61410546    -0.86800
O363        O  0.58586532  0.66690507  0.63651773    -0.83900
C364        C  0.60019152  0.67275401  0.59938587     0.96600
O365        O  0.58738201  0.65251210  0.56865425    -0.83900
O366        O  0.54420181  0.60875937  0.51365205    -0.86500
C367        C  0.53209077  0.62569088  0.49839690     1.01100
O368        O  0.51206061  0.63023686  0.52066773    -0.79400
O369        O  0.48432552  0.64365483  0.59145601    -0.79500
C370        C  0.50817743  0.67237047  0.60095335     1.01100
Cr371      Cr  0.53629527  0.64070575  0.64700971     1.93700
Cr372      Cr  0.55520332  0.60634282  0.57747657     1.93200
Cr373      Cr  0.48867310  0.60375539  0.57164304     1.39100
O374        O  0.52642963  0.61632754  0.59919652    -1.24600
O375        O  0.62507717  0.48443700  0.83546086    -0.86800
O376        O  0.61362266  0.53472084  0.81809478    -0.83900
C377        C  0.60390454  0.55496768  0.82460009     0.96600
O378        O  0.60488998  0.56635643  0.86296676    -0.83900
O379        O  0.56143379  0.51572609  0.91622813    -0.86600
C380        C  0.55045195  0.49489239  0.94669836     1.01100
O381        O  0.56738402  0.48171436  0.95904094    -0.79300
O382        O  0.58344783  0.45800042  0.88189543    -0.79500
C383        C  0.59773377  0.45899437  0.84604205     1.01100
O384        O  0.68077601  0.53179629  0.89113059    -0.86800
O385        O  0.67145688  0.58169222  0.86751372    -0.83900
C386        C  0.67514820  0.59612086  0.90430149     0.96600
O387        O  0.65308683  0.58379117  0.93292110    -0.83900
O388        O  0.61040315  0.53919738  0.98737395    -0.86500
C389        C  0.63074333  0.53119992  0.00261160     1.01100
O390        O  0.63657040  0.51132215  0.98202314    -0.79400
O391        O  0.64935636  0.48109937  0.91261921    -0.79500
C392        C  0.67782455  0.50491613  0.90295250     1.01100
Cr393      Cr  0.64594573  0.53228634  0.85621072     1.93700
Cr394      Cr  0.60795607  0.54929330  0.92300351     1.93200
Cr395      Cr  0.60950890  0.48522729  0.93203826     1.39100
O396        O  0.62051064  0.52201305  0.90291366    -1.24600
O397        O  0.53784419  0.41370199  0.37325433    -0.86800
O398        O  0.51608835  0.42860656  0.45384930    -0.83900
C399        C  0.50003601  0.44329234  0.44427377     0.96600
O400        O  0.47709344  0.43031860  0.41650026    -0.83900
O401        O  0.42764662  0.38489894  0.36349692    -0.86600
C402        C  0.43880039  0.38712240  0.32459141     1.01100
O403        O  0.45977940  0.37853673  0.31639338    -0.79300
O404        O  0.51256097  0.36992603  0.33005065    -0.79500
C405        C  0.53660225  0.39882293  0.33782246     1.01100
O406        O  0.52062357  0.34905659  0.40523856    -0.86800
O407        O  0.49303935  0.36121900  0.47788819    -0.83900
C408        C  0.47203981  0.36421307  0.50031195     0.96600
O409        O  0.45951678  0.38102594  0.48586088    -0.83900
O410        O  0.41522432  0.33640111  0.43284993    -0.86500
C411        C  0.40226450  0.31533410  0.40304657     1.01100
O412        O  0.41623752  0.32030898  0.36582567    -0.79400
O413        O  0.46924227  0.31475178  0.38822463    -0.79500
C414        C  0.49748149  0.31976411  0.39720254     1.01100
Cr415      Cr  0.51459003  0.38766112  0.42576512     1.93700
Cr416      Cr  0.44689112  0.38274108  0.42265929     1.93200
Cr417      Cr  0.46534188  0.34763974  0.35339463     1.39100
O418        O  0.47582072  0.37339830  0.39995377    -1.24600
O419        O  0.41853063  0.53293230  0.12430964    -0.86800
O420        O  0.43217166  0.50829428  0.04588402    -0.83900
C421        C  0.44738087  0.49289769  0.05611638     0.96600
O422        O  0.43531965  0.47087265  0.08505213    -0.83900
O423        O  0.39115938  0.42237603  0.14004129    -0.86600
C424        C  0.39481317  0.43472218  0.17846364     1.01100
O425        O  0.38743243  0.45666669  0.18593626    -0.79300
O426        O  0.37669734  0.50809630  0.17058106    -0.79500
C427        C  0.40434280  0.53289316  0.15976661     1.01100
O428        O  0.35277876  0.51258690  0.09420504    -0.86800
O429        O  0.36392802  0.48319177  0.02403493    -0.83900
C430        C  0.36734184  0.46244783  0.00184506     0.96600
O431        O  0.38482362  0.45071682  0.01644138    -0.83900
O432        O  0.34144305  0.40847223  0.07222638    -0.86500
C433        C  0.32120498  0.39624114  0.10298927     1.01100
O434        O  0.32745338  0.41075162  0.14004050    -0.79400
O435        O  0.31991128  0.46223334  0.11690495    -0.79500
C436        C  0.32397094  0.48937899  0.10396063     1.01100
Cr437      Cr  0.39148869  0.50697298  0.07409407     1.93700
Cr438      Cr  0.38785558  0.44017223  0.08038179     1.93200
Cr439      Cr  0.35460164  0.46025158  0.15014353     1.39100
O440        O  0.37871538  0.46946300  0.10220435    -1.24600
O441        O  0.13054730  0.20951386  0.45574616    -0.86800
O442        O  0.15552251  0.24791978  0.37675756    -0.83900
C443        C  0.17104416  0.27857764  0.38678619     0.96600
O444        O  0.19331340  0.28860795  0.41554431    -0.83900
O445        O  0.24091541  0.29288317  0.47231310    -0.86600
C446        C  0.22834939  0.28391265  0.51057099     1.01100
O447        O  0.20683970  0.25439608  0.51791259    -0.79300
O448        O  0.15536920  0.19247918  0.50214397    -0.79500
C449        C  0.13073398  0.19564678  0.49150216     1.01100
O450        O  0.15063771  0.16409167  0.42590660    -0.86800
O451        O  0.18040852  0.20456343  0.35516867    -0.83900
C452        C  0.20146989  0.22870427  0.33315144     0.96600
O453        O  0.21390439  0.25788856  0.34819910    -0.83900
O454        O  0.25604328  0.25719452  0.40541098    -0.86500
C455        C  0.26798247  0.24915290  0.43661462     1.01100
O456        O  0.25284529  0.24035675  0.47310662    -0.79400
O457        O  0.20092275  0.18114366  0.44917728    -0.79500
C458        C  0.17346525  0.15813830  0.43663031     1.01100
Cr459      Cr  0.15667285  0.20848677  0.40542799     1.93700
Cr460      Cr  0.22390869  0.27161646  0.41230200     1.93200
Cr461      Cr  0.20322596  0.21805747  0.48212918     1.39100
O462        O  0.19430665  0.23312193  0.43388062    -1.24600
O463        O  0.25087237  0.44889661  0.71205613    -0.86800
O464        O  0.23588637  0.40986186  0.79001215    -0.83900
C465        C  0.22073603  0.37921002  0.77987363     0.96600
O466        O  0.23306271  0.36919854  0.75126736    -0.83900
O467        O  0.27780841  0.36549803  0.69628529    -0.86600
C468        C  0.27439557  0.37466008  0.65803677     1.01100
O469        O  0.28264140  0.40425711  0.65094794    -0.79300
O470        O  0.29328010  0.46625585  0.66678587    -0.79500
C471        C  0.26529472  0.46301034  0.67671878     1.01100
O472        O  0.31653484  0.49402408  0.74376993    -0.86800
O473        O  0.30359268  0.45237025  0.81422140    -0.83900
C474        C  0.29915446  0.42769631  0.83618720     0.96600
O475        O  0.28269480  0.39879266  0.82033905    -0.83900
O476        O  0.32712326  0.40048389  0.76548846    -0.86500
C477        C  0.34788091  0.40899100  0.73526032     1.01100
O478        O  0.34205054  0.41764149  0.69820728    -0.79400
O479        O  0.34938413  0.47630452  0.72203906    -0.79500
C480        C  0.34541782  0.49958237  0.73420507     1.01100
Cr481      Cr  0.27718805  0.44943077  0.76298801     1.93700
Cr482      Cr  0.28064790  0.38601520  0.75635036     1.93200
Cr483      Cr  0.31505297  0.44015922  0.68774965     1.39100
O484        O  0.29021481  0.42478244  0.73507805    -1.24600
O485        O  0.21985135  0.12840376  0.04002726    -0.86800
O486        O  0.25819006  0.15222842  0.11905465    -0.83900
C487        C  0.28904147  0.16919254  0.10988810     0.96600
O488        O  0.29874021  0.19266555  0.08312404    -0.83900
O489        O  0.30007592  0.24036259  0.02937634    -0.86600
C490        C  0.29183806  0.22777284  0.99098173     1.01100
O491        O  0.26277446  0.20526177  0.98314540    -0.79300
O492        O  0.20096240  0.15271011  0.99593900    -0.79500
C493        C  0.20544987  0.12866254  0.00481166     1.01100
O494        O  0.17233258  0.14571236  0.07256947    -0.86800
O495        O  0.21264634  0.17386543  0.14454203    -0.83900
C496        C  0.23651395  0.19503030  0.16707114     0.96600
O497        O  0.26573960  0.20851225  0.15209451    -0.83900
O498        O  0.26170096  0.25036392  0.09810853    -0.86500
C499        C  0.25419235  0.26305572  0.06735337     1.01100
O500        O  0.24688647  0.24924434  0.02982394    -0.79400
O501        O  0.18804674  0.19605446  0.05112928    -0.79500
C502        C  0.16551111  0.16819446  0.06295999     1.01100
Cr503      Cr  0.21754556  0.15236420  0.09220379     1.93700
Cr504      Cr  0.27906922  0.22089714  0.08862413     1.93200
Cr505      Cr  0.22568985  0.20005512  0.01829788     1.39100
O506        O  0.24116058  0.19076669  0.06583647    -1.24600
O507        O  0.45453593  0.24525398  0.78958602    -0.86800
O508        O  0.41654074  0.23217937  0.71081975    -0.83900
C509        C  0.38579707  0.21735182  0.72048888     0.96600
O510        O  0.37587795  0.22973337  0.74913043    -0.83900
O511        O  0.37309279  0.27425707  0.80567661    -0.86600
C512        C  0.38211571  0.27084959  0.84407421     1.01100
O513        O  0.41141397  0.27796340  0.85130963    -0.79300
O514        O  0.47283091  0.28738853  0.83558031    -0.79500
C515        C  0.46857719  0.25909223  0.82532322     1.01100
O516        O  0.50120267  0.31100604  0.75988269    -0.86800
O517        O  0.46054896  0.29997977  0.68877781    -0.83900
C518        C  0.43631826  0.29642491  0.66637681     0.96600
O519        O  0.40714274  0.28036973  0.68162232    -0.83900
O520        O  0.40909965  0.32414793  0.73810187    -0.86500
C521        C  0.41701483  0.34416937  0.76921377     1.01100
O522        O  0.42565532  0.33784512  0.80592813    -0.79400
O523        O  0.48421672  0.34443011  0.78163320    -0.79500
C524        C  0.50728437  0.33996597  0.76990120     1.01100
Cr525      Cr  0.45637615  0.27258755  0.73927253     1.93700
Cr526      Cr  0.39374097  0.27748138  0.74560794     1.93200
Cr527      Cr  0.44762507  0.31020193  0.81525898     1.39100
O528        O  0.43209351  0.28596518  0.76732897    -1.24600
O529        O  0.46491228  0.87716198  0.12217397    -0.86800
O530        O  0.48965636  0.91485000  0.04306554    -0.83900
C531        C  0.50571195  0.94549644  0.05307619     0.96600
O532        O  0.52824534  0.95529362  0.08139682    -0.83900
O533        O  0.57603692  0.95847012  0.13676496    -0.86600
C534        C  0.56379412  0.94989488  0.17526591     1.01100
O535        O  0.54180197  0.92058751  0.18294605    -0.79300
O536        O  0.48917847  0.85899167  0.16771359    -0.79500
C537        C  0.46481864  0.86284069  0.15757808     1.01100
O538        O  0.48335651  0.83035963  0.09202894    -0.86800
O539        O  0.51270203  0.87010589  0.02097285    -0.83900
C540        C  0.53394275  0.89386210  0.99867003     0.96600
O541        O  0.54679256  0.92323201  0.01318981    -0.83900
O542        O  0.58895271  0.92162940  0.06899962    -0.86500
C543        C  0.60143746  0.91421903  0.10014337     1.01100
O544        O  0.58663048  0.90564154  0.13690339    -0.79400
O545        O  0.53401147  0.84702997  0.11299592    -0.79500
C546        C  0.50621815  0.82412648  0.10149558     1.01100
Cr547      Cr  0.48999449  0.87502304  0.07149306     1.93700
Cr548      Cr  0.55790714  0.93725376  0.07702301     1.93200
Cr549      Cr  0.53709125  0.88392772  0.14686691     1.39100
O550        O  0.52801869  0.89922568  0.09914515    -1.24600
O551        O  0.58563510  0.11236601  0.37518156    -0.86800
O552        O  0.57127403  0.07396099  0.45383044    -0.83900
C553        C  0.55682057  0.04324913  0.44426887     0.96600
O554        O  0.56980018  0.03346127  0.41628019    -0.83900
O555        O  0.61534455  0.03194458  0.36039210    -0.86600
C556        C  0.61253701  0.04133400  0.32197990     1.01100
O557        O  0.62110411  0.07101601  0.31473166    -0.79300
O558        O  0.62915394  0.13192821  0.33150078    -0.79500
C559        C  0.60034851  0.12694046  0.34017852     1.01100
O560        O  0.65036960  0.15944193  0.40830544    -0.86800
O561        O  0.63849081  0.11812443  0.47846373    -0.83900
C562        C  0.63533236  0.09389412  0.50034305     0.96600
O563        O  0.61979387  0.06487472  0.48458351    -0.83900
O564        O  0.66446356  0.06766563  0.42977733    -0.86500
C565        C  0.68581185  0.07729076  0.40023936     1.01100
O566        O  0.68023094  0.08605116  0.36320329    -0.79400
O567        O  0.68502059  0.14359743  0.38811690    -0.79500
C568        C  0.67980328  0.16612342  0.40017443     1.01100
Cr569      Cr  0.61197026  0.11412803  0.42688013     1.93700
Cr570      Cr  0.61781101  0.05202725  0.42065480     1.93200
Cr571      Cr  0.65200678  0.10708537  0.35269879     1.39100
O572        O  0.62643102  0.09052680  0.39936630    -1.24600
O573        O  0.87276547  0.08172738  0.04450864    -0.86800
O574        O  0.84938530  0.09646091  0.12349566    -0.83900
C575        C  0.83388991  0.11169869  0.11363063     0.96600
O576        O  0.81113039  0.09922049  0.08552533    -0.83900
O577        O  0.76223762  0.05484227  0.03090551    -0.86600
C578        C  0.77462060  0.05852556  0.99254915     1.01100
O579        O  0.79617053  0.05064242  0.98487267    -0.79300
O580        O  0.84734100  0.03953523  0.99885410    -0.79500
C581        C  0.87223465  0.06731780  0.00898772     1.01100
O582        O  0.85264599  0.01614012  0.07496176    -0.86800
O583        O  0.82440082  0.02840700  0.14662003    -0.83900
C584        C  0.80396039  0.03227748  0.16901070     0.96600
O585        O  0.79175919  0.04922576  0.15406815    -0.83900
O586        O  0.74852681  0.00525840  0.09885407    -0.86500
C587        C  0.73596335  0.98497326  0.06806854     1.01100
O588        O  0.75030424  0.99106165  0.03096653    -0.79400
O589        O  0.80190129  0.98325425  0.05326420    -0.79500
C590        C  0.82943381  0.98737370  0.06462960     1.01100
Cr591      Cr  0.84746987  0.05523829  0.09550735     1.93700
Cr592      Cr  0.78046753  0.05169662  0.09036491     1.93200
Cr593      Cr  0.79974112  0.01786378  0.02029507     1.39100
O594        O  0.80952985  0.04227774  0.06816012    -1.24600
O595        O  0.75268843  0.19948054  0.79039098    -0.86800
O596        O  0.76611694  0.17375486  0.71222554    -0.83900
C597        C  0.78078774  0.15777503  0.72243308     0.96600
O598        O  0.76820795  0.13572318  0.75132242    -0.83900
O599        O  0.72372442  0.08919430  0.80796770    -0.86600
C600        C  0.72741208  0.10216471  0.84599734     1.01100
O601        O  0.71935975  0.12365159  0.85300253    -0.79300
O602        O  0.71022125  0.17556767  0.83590549    -0.79500
C603        C  0.73835363  0.19987934  0.82555016     1.01100
O604        O  0.68746955  0.18037680  0.75961458    -0.86800
O605        O  0.69807221  0.14985282  0.68964223    -0.83900
C606        C  0.70105597  0.12858012  0.66802669     0.96600
O607        O  0.71753248  0.11601161  0.68351325    -0.83900
O608        O  0.67366023  0.07468305  0.73980657    -0.86500
C609        C  0.65341563  0.06255795  0.77057312     1.01100
O610        O  0.65943251  0.07771771  0.80712735    -0.79400
O611        O  0.65346713  0.13012908  0.78160058    -0.79500
C612        C  0.65841055  0.15782181  0.76974359     1.01100
Cr613      Cr  0.72563147  0.17352947  0.73996425     1.93700
Cr614      Cr  0.72037549  0.10599792  0.74761757     1.93200
Cr615      Cr  0.68733480  0.12750107  0.81607737     1.39100
O616        O  0.71195369  0.13602781  0.76860703    -1.24600
O617        O  0.78705382  0.91084081  0.45680403    -0.86800
O618        O  0.74838567  0.89757061  0.37840820    -0.83900
C619        C  0.71758861  0.88289400  0.38794886     0.96600
O620        O  0.70758829  0.89562707  0.41596088    -0.83900
O621        O  0.70505519  0.94001107  0.47264548    -0.86600
C622        C  0.71344115  0.93517039  0.51067549     1.01100
O623        O  0.74264355  0.94200406  0.51808922    -0.79300
O624        O  0.80463631  0.95253201  0.50339867    -0.79500
C625        C  0.80112951  0.92469915  0.49254560     1.01100
O626        O  0.83324612  0.97659308  0.42684638    -0.86800
O627        O  0.79266204  0.96567969  0.35628785    -0.83900
C628        C  0.76869182  0.96298148  0.33413584     0.96600
O629        O  0.73944305  0.94650595  0.34891506    -0.83900
O630        O  0.74219932  0.99028788  0.40586029    -0.86500
C631        C  0.75056598  0.01022577  0.43713463     1.01100
O632        O  0.75773805  0.00289902  0.47418845    -0.79400
O633        O  0.81645847  0.00971334  0.45113602    -0.79500
C634        C  0.83926700  0.00543642  0.43744886     0.72300
Cr635      Cr  0.78844139  0.93808806  0.40659203     1.93700
Cr636      Cr  0.72603194  0.94345412  0.41283656     1.93200
Cr637      Cr  0.77935873  0.97503310  0.48335268     1.39100
O638        O  0.76420801  0.95141989  0.43481863    -1.24600
O639        O  0.54918441  0.79215751  0.70564571    -0.86800
O640        O  0.58705119  0.81462479  0.78530012    -0.83900
C641        C  0.61782767  0.83080151  0.77584878     0.96600
O642        O  0.62773991  0.85371889  0.74820936    -0.83900
O643        O  0.63109120  0.90250716  0.69507361    -0.86600
C644        C  0.62213060  0.89070753  0.65641123     1.01100
O645        O  0.59259166  0.86952341  0.64832696    -0.79300
O646        O  0.53078849  0.81726919  0.66211203    -0.79500
C647        C  0.53491994  0.79286785  0.67052852     1.01100
O648        O  0.50259729  0.81039892  0.73837896    -0.86800
O649        O  0.54304693  0.83779498  0.81048285    -0.83900
C650        C  0.56729465  0.85839432  0.83302476     0.96600
O651        O  0.59646225  0.87139405  0.81784651    -0.83900
O652        O  0.59509511  0.91511690  0.76447243    -0.86500
C653        C  0.58728257  0.92812927  0.73441653     1.01100
O654        O  0.57851603  0.91407676  0.69707325    -0.79400
O655        O  0.51957831  0.86139204  0.71932082    -0.79500
C656        C  0.49652784  0.83353402  0.73006539     1.01100
Cr657      Cr  0.54730428  0.81608256  0.75803237     1.93700
Cr658      Cr  0.61008893  0.88366280  0.75437796     1.93200
Cr659      Cr  0.55630240  0.86471599  0.68498182     1.39100
O660        O  0.57165905  0.85456868  0.73187668    -1.24600
O661        O  0.15623913  0.95474475  0.00154703    -0.86800
O662        O  0.20617244  0.94221125  0.01739066    -0.83900
C663        C  0.22750060  0.93394488  0.01042495     0.96600
O664        O  0.24055656  0.93783179  0.97245032    -0.83900
O665        O  0.19238403  0.89448149  0.91637053    -0.86600
C666        C  0.17043585  0.88272996  0.88717529     1.01100
O667        O  0.15549007  0.89843119  0.87678955    -0.79300
O668        O  0.13093545  0.91311915  0.95500915    -0.79500
C669        C  0.13129336  0.92710741  0.99085158     1.01100
O670        O  0.20382114  0.01105594  0.94859602    -0.86800
O671        O  0.25413237  0.00193667  0.97242698    -0.83900
C672        C  0.26876668  0.00803087  0.93547141     0.96600
O673        O  0.25615204  0.98797295  0.90453394    -0.83900
O674        O  0.21395284  0.94521650  0.84788944    -0.86500
C675        C  0.20238203  0.96267530  0.83265015     1.01100
O676        O  0.18201088  0.96684061  0.85469241    -0.79400
O677        O  0.15336586  0.97963774  0.92471712    -0.79500
C678        C  0.17731123  0.00814036  0.93466911     1.01100
Cr679      Cr  0.20426767  0.97577934  0.98170527     1.93700
Cr680      Cr  0.22373512  0.94180165  0.91223815     1.93200
Cr681      Cr  0.15763397  0.93980703  0.90488611     1.39100
O682        O  0.19484546  0.95173713  0.93352930    -1.24600
O683        O  0.29327900  0.81798967  0.16397236    -0.86800
O684        O  0.28286735  0.86936917  0.14973994    -0.83900
C685        C  0.27374621  0.88993643  0.15758993     0.96600
O686        O  0.27653453  0.90190654  0.19611727    -0.83900
O687        O  0.23254788  0.85312423  0.25047330    -0.86600
C688        C  0.22030307  0.83063546  0.27876153     1.01100
O689        O  0.23560288  0.81517109  0.28831423    -0.79300
O690        O  0.25033183  0.79246139  0.20837171    -0.79500
C691        C  0.26519714  0.79315256  0.17324151     1.01100
O692        O  0.34915211  0.86306600  0.22012962    -0.86800
O693        O  0.34200615  0.91499992  0.19761781    -0.83900
C694        C  0.34719041  0.92909432  0.23489859     0.96600
O695        O  0.32624717  0.91617041  0.26472090    -0.83900
O696        O  0.28300053  0.87259298  0.31910989    -0.86500
C697        C  0.30014973  0.86038801  0.33344888     1.01100
O698        O  0.30363750  0.83984981  0.31083713    -0.79400
O699        O  0.31594761  0.81198605  0.23943678    -0.79500
C700        C  0.34497052  0.83545392  0.23082735     1.01100
Cr701      Cr  0.31506493  0.86552748  0.18609329     1.93700
Cr702      Cr  0.28004258  0.88395258  0.25557373     1.93200
Cr703      Cr  0.27675834  0.81717017  0.25983146     1.39100
O704        O  0.28989975  0.85529321  0.23317857    -1.24600
O705        O  0.37663483  0.85792911  0.66729713    -0.86800
O706        O  0.38742981  0.91989782  0.68251572    -0.83900
C707        C  0.39670726  0.94968651  0.67499778     0.96600
O708        O  0.39389983  0.95907238  0.63661431    -0.83900
O709        O  0.43739388  0.95424135  0.58094707    -0.86600
C710        C  0.44947252  0.94388008  0.55249421     1.01100
O711        O  0.43404977  0.91314089  0.54295508    -0.79300
O712        O  0.41924252  0.87526715  0.62230686    -0.79500
C713        C  0.40455985  0.86101629  0.65748049     1.01100
O714        O  0.32048023  0.84727508  0.61206739    -0.86800
O715        O  0.32833594  0.90683625  0.63558992    -0.83900
C716        C  0.32300315  0.91628207  0.59886017     0.96600
O717        O  0.34349467  0.92415072  0.56841954    -0.83900
O718        O  0.38663224  0.92394646  0.51308484    -0.86500
C719        C  0.36986562  0.89480819  0.49798782     1.01100
O720        O  0.36606959  0.87044799  0.52012270    -0.79400
O721        O  0.35373778  0.82976392  0.59130899    -0.79500
C722        C  0.32480195  0.82396333  0.60094085     1.01100
Cr723      Cr  0.35497219  0.88393954  0.64598369     1.93700
Cr724      Cr  0.38983228  0.93778596  0.57678190     1.93200
Cr725      Cr  0.39282842  0.87409329  0.57117001     1.39100
O726        O  0.37988574  0.89903543  0.59857055    -1.24600
O727        O  0.51477971  0.13207646  0.83346341    -0.86800
O728        O  0.46526741  0.06948643  0.81643029    -0.83900
C729        C  0.44431324  0.03969270  0.82304811     0.96600
O730        O  0.43163885  0.03019276  0.86105181    -0.83900
O731        O  0.48164552  0.03716215  0.91605899    -0.86600
C732        C  0.50285172  0.04738593  0.94630351     1.01100
O733        O  0.51619467  0.07761360  0.95829222    -0.79300
O734        O  0.54095547  0.11775160  0.88163214    -0.79500
C735        C  0.54027549  0.13077371  0.84538523     1.01100
O736        O  0.46681813  0.14071969  0.88557262    -0.86800
O737        O  0.41713391  0.08085041  0.86242866    -0.83900
C738        C  0.40247793  0.07150933  0.89929575     0.96600
O739        O  0.41459843  0.06263373  0.92939804    -0.83900
O740        O  0.45836827  0.06330067  0.98535834    -0.86500
C741        C  0.46709137  0.09161704  0.00098317     1.01100
O742        O  0.48653814  0.11731482  0.98015961    -0.79400
O743        O  0.51692271  0.15997983  0.91068009    -0.79500
C744        C  0.49339177  0.16455756  0.89889854     1.01100
Cr745      Cr  0.46681334  0.10484832  0.85272905     1.93700
Cr746      Cr  0.44852836  0.05083246  0.92110159     1.93200
Cr747      Cr  0.51292016  0.11627408  0.93074312     1.39100
O748        O  0.47643824  0.09038297  0.90081555    -1.24600
O749        O  0.19974397  0.03979485  0.49732532    -0.86800
O750        O  0.26172209  0.05025028  0.48162098    -0.83900
C751        C  0.29137068  0.05871916  0.48915076     0.96600
O752        O  0.30062949  0.05579915  0.52754595    -0.83900
O753        O  0.29568001  0.09918259  0.58335544    -0.86600
C754        C  0.28544691  0.11105466  0.61224133     1.01100
O755        O  0.25484827  0.09525988  0.62265266    -0.79300
O756        O  0.21620236  0.08125867  0.54428121    -0.79500
C757        C  0.20218189  0.06717452  0.50861267     1.01100
O758        O  0.18870266  0.98287120  0.55049671    -0.86800
O759        O  0.24806721  0.99064511  0.52761317    -0.83900
C760        C  0.25731785  0.98504728  0.56437593     0.96600
O761        O  0.26576957  0.00560063  0.59488845    -0.83900
O762        O  0.26599749  0.04823994  0.65140291    -0.86500
C763        C  0.23687996  0.03082624  0.66637717     1.01100
O764        O  0.21237874  0.02676930  0.64414806    -0.79400
O765        O  0.17115774  0.01556821  0.57349888    -0.79500
C766        C  0.16540839  0.98692901  0.56251170     1.01100
Cr767      Cr  0.22553630  0.01766574  0.51762772     1.93700
Cr768      Cr  0.27947000  0.05177285  0.58729958     1.93200
Cr769      Cr  0.21559877  0.05427953  0.59416824     1.39100
O770        O  0.24060683  0.04194231  0.56567080    -1.24600
O771        O  0.47408384  0.17668591  0.33237245    -0.86800
O772        O  0.41111821  0.12747396  0.34867973    -0.83900
C773        C  0.38159799  0.10563856  0.34192664     0.96600
O774        O  0.37254252  0.09247814  0.30403978    -0.83900
O775        O  0.37946821  0.14140149  0.24672243    -0.86600
C776        C  0.39003674  0.16251109  0.21640579     1.01100
O777        O  0.42050075  0.17583128  0.20520403    -0.79300
O778        O  0.46071175  0.20220562  0.28202351    -0.79500
C779        C  0.47290298  0.20195126  0.31921977     1.01100
O780        O  0.48297045  0.12765453  0.28342598    -0.86800
O781        O  0.42291510  0.07859915  0.30624224    -0.83900
C782        C  0.41410838  0.06319572  0.26976464     0.96600
O783        O  0.40615275  0.07492654  0.23816646    -0.83900
O784        O  0.40661563  0.11749528  0.18021905    -0.86500
C785        C  0.43500977  0.12557102  0.16557157     1.01100
O786        O  0.46055444  0.14543586  0.18646625    -0.79400
O787        O  0.50278101  0.17697750  0.25560848    -0.79500
C788        C  0.50684205  0.15332930  0.26825091     1.01100
Cr789      Cr  0.44693164  0.12843723  0.31432765     1.93700
Cr790      Cr  0.39369882  0.10861111  0.24418107     1.93200
Cr791      Cr  0.45919497  0.17293335  0.23432135     1.39100
O792        O  0.43297663  0.13713120  0.26502883    -1.24600
C793        C  0.30290238  0.06073414  0.40863714    -0.14800
C794        C  0.31472000  0.07077688  0.45186934     0.07300
C795        C  0.34852430  0.09247793  0.45863458    -0.14800
C796        C  0.37008551  0.10433362  0.42272157    -0.14800
C797        C  0.35830016  0.09420514  0.37942140     0.07300
C798        C  0.32451234  0.07212820  0.37281321    -0.14800
H799        H  0.27692023  0.04372888  0.40256252     0.11300
H800        H  0.35819409  0.10064061  0.49163080     0.11300
H801        H  0.39607747  0.12115405  0.42895284     0.11300
H802        H  0.31474945  0.06366713  0.33994102     0.11300
C803        C  0.43582592  0.11109933  0.04452658    -0.14800
C804        C  0.45454857  0.09523512  0.04321245     0.07300
C805        C  0.46429168  0.08672888  0.08238611    -0.14800
C806        C  0.45683089  0.09576374  0.12273760    -0.14800
C807        C  0.43879063  0.11238251  0.12394188     0.07300
C808        C  0.42744585  0.11914981  0.08484983    -0.14800
H809        H  0.42860191  0.11814868  0.01424194     0.11300
H810        H  0.47911824  0.07487679  0.08161983     0.11300
H811        H  0.46584748  0.09061585  0.15297445     0.11300
H812        H  0.41384264  0.13228857  0.08549712     0.11300
C813        C  0.28671158  0.92498717  0.54720973    -0.14800
C814        C  0.29508334  0.92193011  0.59104414     0.07300
C815        C  0.28213698  0.93167390  0.62562874    -0.14800
C816        C  0.26548359  0.94877224  0.61632551    -0.14800
C817        C  0.26195634  0.95657995  0.57239936     0.07300
C818        C  0.27029587  0.94234537  0.53789112    -0.14800
H819        H  0.29586728  0.91693486  0.51986956     0.11300
H820        H  0.28793953  0.92936025  0.65957532     0.11300
H821        H  0.25845924  0.95887750  0.64365387     0.11300
H822        H  0.26748686  0.94762879  0.50389172     0.11300
C823        C  0.39984372  0.96115089  0.75566410    -0.14800
C824        C  0.40956959  0.97300071  0.71244458     0.07300
C825        C  0.43168612  0.00670657  0.70597628    -0.14800
C826        C  0.44371991  0.02819390  0.74210942    -0.14800
C827        C  0.43337302  0.01644220  0.78532395     0.07300
C828        C  0.41143222  0.98265451  0.79166044    -0.14800
H829        H  0.38274318  0.93521845  0.76161615     0.11300
H830        H  0.43984766  0.01637648  0.67305658     0.11300
H831        H  0.46069890  0.05413736  0.73609219     0.11300
H832        H  0.40299212  0.97283225  0.82444545     0.11300
C833        C  0.32491962  0.89973556  0.39707256    -0.14800
C834        C  0.31683242  0.86972291  0.37641567     0.07300
C835        C  0.32772212  0.84935413  0.39498549    -0.14800
C836        C  0.34610771  0.85849848  0.43347669    -0.14800
C837        C  0.35408197  0.88823896  0.45452651     0.07300
C838        C  0.34363732  0.90904120  0.43602240    -0.14800
H839        H  0.31723629  0.91607016  0.38283929     0.11300
H840        H  0.32207940  0.82617221  0.37967513     0.11300
H841        H  0.35381796  0.84198996  0.44707681     0.11300
H842        H  0.34919761  0.93190849  0.45219927     0.11300
C843        C  0.39786837  0.00720734  0.29801914    -0.14800
C844        C  0.40940838  0.02991380  0.26343129     0.07300
C845        C  0.40884283  0.01860646  0.22008973    -0.14800
C846        C  0.39180196  0.98484450  0.21055887    -0.14800
C847        C  0.37547246  0.96221391  0.24443061     0.07300
C848        C  0.38118154  0.97348813  0.28856996    -0.14800
H849        H  0.39834328  0.01526692  0.33163542     0.11300
H850        H  0.41845493  0.03589420  0.19291623     0.11300
H851        H  0.38840099  0.97683674  0.17647356     0.11300
H852        H  0.36965769  0.95637638  0.31560318     0.11300
C853        C  0.19124657  0.98879294  0.76939508    -0.14800
C854        C  0.21191932  0.97870272  0.78912077     0.07300
C855        C  0.24214962  0.98690027  0.76885836    -0.14800
C856        C  0.25139957  0.00511058  0.72940013    -0.14800
C857        C  0.23032443  0.01494647  0.70995496     0.07300
C858        C  0.20030261  0.00661674  0.73050643    -0.14800
H859        H  0.16785161  0.98300407  0.78418455     0.11300
H860        H  0.25872110  0.97978435  0.78383732     0.11300
H861        H  0.27448876  0.01087762  0.71371643     0.11300
H862        H  0.18350484  0.01377116  0.71631307     0.11300
C863        C  0.35892104  0.06477210  0.95198563    -0.14800
C864        C  0.36969728  0.06761665  0.90789082     0.07300
C865        C  0.34686276  0.05979215  0.87373491    -0.14800
C866        C  0.31320720  0.04428604  0.88358315    -0.14800
C867        C  0.30217755  0.03612130  0.92758405     0.07300
C868        C  0.32525284  0.04894224  0.96182917    -0.14800
H869        H  0.37630697  0.07155156  0.97901589     0.11300
H870        H  0.35454636  0.06222344  0.83960330     0.11300
H871        H  0.29570805  0.03535035  0.85648026     0.11300
H872        H  0.31743938  0.04343114  0.99589445     0.11300
C873        C  0.25851680  0.90771204  0.04112597    -0.14800
C874        C  0.23827542  0.92145398  0.04790424     0.07300
C875        C  0.22909748  0.92422111  0.09130918    -0.14800
C876        C  0.24068351  0.91419989  0.12723894    -0.14800
C877        C  0.26115232  0.90072618  0.12035351     0.07300
C878        C  0.26964074  0.89722684  0.07694522    -0.14800
H879        H  0.26588402  0.90517737  0.00810550     0.11300
H880        H  0.21342614  0.93469325  0.09761244     0.11300
H881        H  0.23351094  0.91681676  0.16033587     0.11300
H882        H  0.28542895  0.88687438  0.07067147     0.11300
C883        C  0.43419951  0.86006440  0.72548822    -0.14800
C884        C  0.41931764  0.84585125  0.68508872     0.07300
C885        C  0.42352932  0.82045095  0.66740045    -0.14800
C886        C  0.44492661  0.81157018  0.68760446    -0.14800
C887        C  0.46305623  0.82864711  0.72509590     0.07300
C888        C  0.45615203  0.85166728  0.74520784    -0.14800
H889        H  0.43144031  0.87986869  0.73940272     0.11300
H890        H  0.41226045  0.80930287  0.63606709     0.11300
H891        H  0.45054737  0.79456438  0.67070395     0.11300
H892        H  0.47057074  0.86585035  0.77340314     0.11300
C893        C  0.70119187  0.92412029  0.59109745    -0.14800
C894        C  0.68979680  0.92317795  0.54772404     0.07300
C895        C  0.65609144  0.91157498  0.54065738    -0.14800
C896        C  0.63420660  0.90100847  0.57617649    -0.14800
C897        C  0.64570306  0.90235079  0.61949690     0.07300
C898        C  0.67937500  0.91407992  0.62668708    -0.14800
H899        H  0.72708874  0.93298552  0.59766258     0.11300
H900        H  0.64661968  0.91060265  0.50768769     0.11300
H901        H  0.60826905  0.89211133  0.56981188     0.11300
H902        H  0.68873384  0.91503899  0.65973391     0.11300
C903        C  0.57025518  0.13321932  0.77624122    -0.14800
C904        C  0.57030460  0.14594495  0.81807025     0.07300
C905        C  0.60033772  0.17024521  0.83642452    -0.14800
C906        C  0.63026283  0.17943535  0.81513965    -0.14800
C907        C  0.63055166  0.16355975  0.77603516     0.07300
C908        C  0.60027516  0.14173010  0.75554542    -0.14800
H909        H  0.54731076  0.11433422  0.76170963     0.11300
H910        H  0.60077426  0.18037557  0.86871514     0.11300
H911        H  0.65321063  0.19554231  0.83222365     0.11300
H912        H  0.59992866  0.12844844  0.72607287     0.11300
C913        C  0.61232972  0.00614288  0.79728877    -0.14800
C914        C  0.62509399  0.02910248  0.76297152     0.07300
C915        C  0.61658145  0.01788216  0.71906546    -0.14800
C916        C  0.60041970  0.98419299  0.70928711    -0.14800
C917        C  0.59223977  0.96133868  0.74340249     0.07300
C918        C  0.59585391  0.97239252  0.78751633    -0.14800
H919        H  0.61820536  0.01405923  0.83128730     0.11300
H920        H  0.62558875  0.03524254  0.69188976     0.11300
H921        H  0.59760634  0.97640784  0.67518016     0.11300
H922        H  0.58894903  0.95506491  0.81457701     0.11300
C923        C  0.76399047  0.00729182  0.23197012    -0.14800
C924        C  0.79469039  0.01640002  0.21251002     0.07300
C925        C  0.81586086  0.00725452  0.23286601    -0.14800
C926        C  0.80665274  0.98917520  0.27157158    -0.14800
C927        C  0.77596559  0.97964463  0.29109785     0.07300
C928        C  0.75458519  0.98883110  0.27111129    -0.14800
H929        H  0.74709329  0.01375374  0.21645802     0.11300
H930        H  0.83964803  0.01387784  0.21861497     0.11300
H931        H  0.82377001  0.98265570  0.28628741     0.11300
H932        H  0.73101351  0.98220723  0.28601657     0.11300
C933        C  0.74425172  0.08586722  0.96268562    -0.14800
C934        C  0.76298235  0.07048399  0.95543024     0.07300
C935        C  0.77030764  0.06595597  0.91181068    -0.14800
C936        C  0.75865576  0.07607930  0.87616228    -0.14800
C937        C  0.73992868  0.09142110  0.88338929     0.07300
C938        C  0.73307003  0.09651722  0.92699098    -0.14800
H939        H  0.73832944  0.08974851  0.99592398     0.11300
H940        H  0.78468264  0.05410535  0.90513502     0.11300
H941        H  0.76448358  0.07209592  0.84290935     0.11300
H942        H  0.71859898  0.10828808  0.93350150     0.11300
C943        C  0.67336496  0.13859957  0.60550491    -0.14800
C944        C  0.68487740  0.11893195  0.62467736     0.07300
C945        C  0.67863593  0.08960157  0.60355367    -0.14800
C946        C  0.66118908  0.08031401  0.56356474    -0.14800
C947        C  0.65015924  0.10046166  0.54446411     0.07300
C948        C  0.65627960  0.12950086  0.56595524    -0.14800
H949        H  0.67760751  0.16125942  0.62103897     0.11300
H950        H  0.68692465  0.07383626  0.61808283     0.11300
H951        H  0.65707681  0.05801202  0.54710705     0.11300
H952        H  0.64807338  0.14549538  0.55192667     0.11300
C953        C  0.56291876  0.11926055  0.27757516    -0.14800
C954        C  0.58420321  0.13961721  0.31075110     0.07300
C955        C  0.58524008  0.16946021  0.32074711    -0.14800
C956        C  0.56294821  0.17730730  0.30067250    -0.14800
C957        C  0.53915655  0.15509496  0.27090643     0.07300
C958        C  0.54063908  0.12701308  0.25767981    -0.14800
H959        H  0.56155801  0.09600464  0.26981757     0.11300
H960        H  0.60139302  0.18530237  0.34667876     0.11300
H961        H  0.56169133  0.19853151  0.31236089     0.11300
H962        H  0.52201041  0.10912058  0.23556541     0.11300
C963        C  0.49248155  0.00286909  0.53538958    -0.14800
C964        C  0.47846761  0.96881954  0.52622508     0.07300
C965        C  0.48951614  0.95974823  0.48851703    -0.14800
C966        C  0.51386554  0.98393394  0.46104948    -0.14800
C967        C  0.52781448  0.01798391  0.47022199     0.07300
C968        C  0.51671235  0.02701088  0.50789489    -0.14800
H969        H  0.48437935  0.01102894  0.56372789     0.11300
H970        H  0.47900418  0.93396485  0.47983745     0.11300
H971        H  0.52206053  0.97585619  0.43272031     0.11300
H972        H  0.52715608  0.05278151  0.51661751     0.11300
C973        C  0.72226107  0.07073309  0.45375877    -0.14800
C974        C  0.71513229  0.07429555  0.40949448     0.07300
C975        C  0.73023893  0.06639860  0.37566701    -0.14800
C976        C  0.74686164  0.04941190  0.38577901    -0.14800
C977        C  0.74801566  0.03992148  0.42963650     0.07300
C978        C  0.73844819  0.05331307  0.46384369    -0.14800
H979        H  0.71168156  0.07769663  0.48057806     0.11300
H980        H  0.72569387  0.06947586  0.34142210     0.11300
H981        H  0.75514052  0.04014833  0.35881881     0.11300
H982        H  0.73964231  0.04689805  0.49785696     0.11300
C983        C  0.52156528  0.85577802  0.93580839    -0.14800
C984        C  0.54316851  0.88621835  0.95574086     0.07300
C985        C  0.57403288  0.90704189  0.93626967    -0.14800
C986        C  0.58285160  0.89753057  0.89704913    -0.14800
C987        C  0.56074091  0.86727918  0.87687745     0.07300
C988        C  0.53019082  0.84647701  0.89688910    -0.14800
H989        H  0.49773360  0.83903281  0.95026452     0.11300
H990        H  0.59137533  0.93031833  0.95160025     0.11300
H991        H  0.60646694  0.91410444  0.88194933     0.11300
H992        H  0.51264425  0.82300495  0.88215340     0.11300
C993        C  0.40520566  0.82208323  0.16904144    -0.14800
C994        C  0.43488956  0.84852647  0.18526148     0.07300
C995        C  0.43440345  0.86406798  0.22447982    -0.14800
C996        C  0.40417474  0.85564643  0.24450463    -0.14800
C997        C  0.37408384  0.83138207  0.22582859     0.07300
C998        C  0.37501125  0.81326740  0.18952558    -0.14800
H999        H  0.40515114  0.80985708  0.13866023     0.11300
H1000       H  0.45699609  0.88466116  0.23729699     0.11300
H1001       H  0.40404401  0.87058988  0.27174334     0.11300
H1002       H  0.35223735  0.79521994  0.17369037     0.11300
C1003       C  0.57021918  0.96180867  0.25621132    -0.14800
C1004       C  0.57611761  0.97355809  0.21248996     0.07300
C1005       C  0.59402504  0.00770657  0.20515747    -0.14800
C1006       C  0.60562077  0.02965175  0.24080964    -0.14800
C1007       C  0.60003319  0.01786292  0.28453261     0.07300
C1008       C  0.58228505  0.98371550  0.29181621    -0.14800
H1009       H  0.55658157  0.93556726  0.26296284     0.11300
H1010       H  0.59885745  0.01745375  0.17188178     0.11300
H1011       H  0.61927870  0.05589809  0.23410782     0.11300
H1012       H  0.57745536  0.97392641  0.32507325     0.11300
C1013       C  0.64690886  0.92329864  0.04961402    -0.14800
C1014       C  0.63505905  0.91992781  0.09318856     0.07300
C1015       C  0.65750377  0.93013439  0.12824054    -0.14800
C1016       C  0.69134424  0.94817980  0.11959837    -0.14800
C1017       C  0.70293899  0.95628683  0.07587691     0.07300
C1018       C  0.68073335  0.94154972  0.04095984    -0.14800
H1019       H  0.62991761  0.91493417  0.02191931     0.11300
H1020       H  0.64903425  0.92755441  0.16199260     0.11300
H1021       H  0.70822090  0.95863225  0.14723729     0.11300
H1022       H  0.68905164  0.94700829  0.00711802     0.11300
C1023       C  0.51826279  0.00404485  0.04197897    -0.14800
C1024       C  0.50268035  0.97098321  0.02718150     0.07300
C1025       C  0.48921396  0.96398056  0.98449726    -0.14800
C1026       C  0.49115717  0.98923611  0.95747578    -0.14800
C1027       C  0.50649874  0.02227114  0.97231718     0.07300
C1028       C  0.52004128  0.02931355  0.01501694    -0.14800
H1029       H  0.52939874  0.01048096  0.07448660     0.11300
H1030       H  0.47789625  0.93911137  0.97153236     0.11300
H1031       H  0.48006113  0.98271042  0.92494920     0.11300
H1032       H  0.53128893  0.05417007  0.02799808     0.11300
C1033       C  0.50861243  0.23966184  0.83873810    -0.14800
C1034       C  0.48173929  0.24265054  0.85348865     0.07300
C1035       C  0.46432629  0.22514221  0.89096924    -0.14800
C1036       C  0.47164247  0.20247609  0.91076656    -0.14800
C1037       C  0.49674908  0.19737795  0.89374256     0.07300
C1038       C  0.51634758  0.21746170  0.85908084    -0.14800
H1039       H  0.52209506  0.25276095  0.80948400     0.11300
H1040       H  0.44325501  0.22679644  0.90243181     0.11300
H1041       H  0.45554012  0.18652729  0.93657572     0.11300
H1042       H  0.53500463  0.21319825  0.84438455     0.11300
C1043       C  0.30197480  0.15016210  0.67714990    -0.14800
C1044       C  0.31055306  0.14015177  0.63810436     0.07300
C1045       C  0.34445403  0.15507067  0.62728381    -0.14800
C1046       C  0.36899255  0.17898211  0.65480101    -0.14800
C1047       C  0.36044408  0.18879582  0.69404463     0.07300
C1048       C  0.32652522  0.17413915  0.70463148    -0.14800
H1049       H  0.27632684  0.13897127  0.68698572     0.11300
H1050       H  0.35219018  0.14783341  0.59770780     0.11300
H1051       H  0.39463575  0.19014575  0.64495742     0.11300
H1052       H  0.31881919  0.18142419  0.73419745     0.11300
C1053       C  0.21146926  0.09824655  0.94154899    -0.14800
C1054       C  0.19203229  0.09958607  0.97562096     0.07300
C1055       C  0.16222212  0.07096604  0.98650262    -0.14800
C1056       C  0.15370623  0.04057998  0.96672022    -0.14800
C1057       C  0.17519514  0.03852747  0.93628671     0.07300
C1058       C  0.20300317  0.06796430  0.92185174    -0.14800
H1059       H  0.23463391  0.11999526  0.93292264     0.11300
H1060       H  0.14698573  0.07161504  0.01294521     0.11300
H1061       H  0.13267801  0.01827795  0.97927627     0.11300
H1062       H  0.22034915  0.06694010  0.89912086     0.11300
C1063       C  0.34961162  0.25642094  0.96111389    -0.14800
C1064       C  0.31539618  0.23986954  0.95394563     0.07300
C1065       C  0.30326127  0.23394933  0.91037201    -0.14800
C1066       C  0.32485354  0.24418911  0.87461455    -0.14800
C1067       C  0.35902155  0.26011601  0.88165252     0.07300
C1068       C  0.37125218  0.26620370  0.92526107    -0.14800
H1069       H  0.35958016  0.26123709  0.99432958     0.11300
H1070       H  0.27692884  0.22141743  0.90385482     0.11300
H1071       H  0.31478299  0.23926931  0.84143855     0.11300
H1072       H  0.39758273  0.27873828  0.93167972     0.11300
C1073       C  0.30655320  0.14773937  0.17471432    -0.14800
C1074       C  0.31469385  0.16558344  0.13511955     0.07300
C1075       C  0.34850906  0.18410133  0.12345775    -0.14800
C1076       C  0.37331045  0.18444724  0.15039937    -0.14800
C1077       C  0.36505746  0.16658944  0.19011029     0.07300
C1078       C  0.33127031  0.14833876  0.20176294    -0.14800
H1079       H  0.28107520  0.13387564  0.18540108     0.11300
H1080       H  0.35590781  0.19866939  0.09351585     0.11300
H1081       H  0.39880581  0.19827164  0.13984113     0.11300
H1082       H  0.32368162  0.13389607  0.23181500     0.11300
C1083       C  0.38470455  0.40156941  0.78758970    -0.14800
C1084       C  0.37678322  0.40500115  0.74365654     0.07300
C1085       C  0.39156851  0.39731852  0.70916551    -0.14800
C1086       C  0.40932448  0.38131417  0.71836361    -0.14800
C1087       C  0.41213524  0.37259108  0.76206226     0.07300
C1088       C  0.40222172  0.38528810  0.79678490    -0.14800
H1089       H  0.37430719  0.40824897  0.81492390     0.11300
H1090       H  0.38633146  0.40018939  0.67514482     0.11300
H1091       H  0.41760643  0.37246218  0.69093554     0.11300
H1092       H  0.40450320  0.37934863  0.83066549     0.11300
C1093       C  0.19015745  0.19108107  0.26992191    -0.14800
C1094       C  0.21094980  0.22177145  0.28981953     0.07300
C1095       C  0.24127696  0.24365278  0.26974311    -0.14800
C1096       C  0.25053092  0.23467967  0.23037650    -0.14800
C1097       C  0.22940192  0.20391316  0.21064221     0.07300
C1098       C  0.19920470  0.18231247  0.23089238    -0.14800
H1099       H  0.16666446  0.17360506  0.28461777     0.11300
H1100       H  0.25791972  0.26727093  0.28477067     0.11300
H1101       H  0.27376587  0.25196991  0.21493810     0.11300
H1102       H  0.18234312  0.15852644  0.21640132     0.11300
C1103       C  0.19002157  0.11674655  0.42066944    -0.14800
C1104       C  0.16824996  0.12471567  0.44213264     0.07300
C1105       C  0.15270840  0.10800354  0.48104962    -0.14800
C1106       C  0.16219815  0.08713470  0.50121814    -0.14800
C1107       C  0.18652940  0.08191647  0.48199266     0.07300
C1108       C  0.19887782  0.09514706  0.44029039    -0.14800
H1109       H  0.20298561  0.13007837  0.39124387     0.11300
H1110       H  0.13662927  0.11444377  0.49881446     0.11300
H1111       H  0.15234775  0.07699158  0.53344370     0.11300
H1112       H  0.21773422  0.09144464  0.42508647     0.11300
C1113       C  0.23569716  0.29538574  0.59153985    -0.14800
C1114       C  0.23974993  0.30734226  0.54801709     0.07300
C1115       C  0.25483303  0.34145206  0.54109103    -0.14800
C1116       C  0.26560033  0.36317513  0.57697795    -0.14800
C1117       C  0.26202919  0.35125487  0.62050367     0.07300
C1118       C  0.24697914  0.31712399  0.62737790    -0.14800
H1119       H  0.22424281  0.26915558  0.59789368     0.11300
H1120       H  0.25808695  0.35130225  0.50798589     0.11300
H1121       H  0.27713456  0.38939587  0.57054995     0.11300
H1122       H  0.24382235  0.30721308  0.66042684     0.11300
C1123       C  0.33811809  0.47191237  0.94095582    -0.14800
C1124       C  0.35028037  0.45246788  0.95910229     0.07300
C1125       C  0.34343204  0.42295450  0.93796161    -0.14800
C1126       C  0.32506111  0.41349105  0.89867224    -0.14800
C1127       C  0.31375484  0.43366221  0.88036034     0.07300
C1128       C  0.32006527  0.46260105  0.90221666    -0.14800
H1129       H  0.34267460  0.49463717  0.95662055     0.11300
H1130       H  0.35203512  0.40726107  0.95186865     0.11300
H1131       H  0.32066919  0.39119148  0.88193761     0.11300
H1132       H  0.31152587  0.47851807  0.88883845     0.11300
C1133       C  0.27870603  0.34061733  0.12934172    -0.14800
C1134       C  0.29250109  0.36334670  0.09496410     0.07300
C1135       C  0.28420898  0.35229446  0.05099195    -0.14800
C1136       C  0.26737105  0.31864780  0.04135618    -0.14800
C1137       C  0.25839845  0.29588287  0.07569194     0.07300
C1138       C  0.26148684  0.30694140  0.11969897    -0.14800
H1139       H  0.28436979  0.34852806  0.16337253     0.11300
H1140       H  0.29395714  0.36959501  0.02379858     0.11300
H1141       H  0.26489796  0.31075564  0.00728820     0.11300
H1142       H  0.25392898  0.28962309  0.14685331     0.11300
C1143       C  0.42240342  0.32150278  0.60252509    -0.14800
C1144       C  0.44313564  0.31146935  0.62235786     0.07300
C1145       C  0.47295896  0.31892133  0.60181888    -0.14800
C1146       C  0.48235068  0.33658787  0.56274409    -0.14800
C1147       C  0.46223301  0.34740826  0.54319036     0.07300
C1148       C  0.43200352  0.33956195  0.56312416    -0.14800
H1149       H  0.39940170  0.31622429  0.61804631     0.11300
H1150       H  0.48937867  0.31139739  0.61630549     0.11300
H1151       H  0.50559645  0.34191920  0.54792183     0.11300
H1152       H  0.41576224  0.34707621  0.54807656     0.11300
C1153       C  0.47954152  0.26090335  0.40849077    -0.14800
C1154       C  0.50258327  0.29151620  0.39001849     0.07300
C1155       C  0.52009077  0.29181113  0.35230317    -0.14800
C1156       C  0.51177324  0.26220914  0.33048773    -0.14800
C1157       C  0.48661037  0.23189570  0.34690237     0.07300
C1158       C  0.47184076  0.23127492  0.38731087    -0.14800
H1159       H  0.46498353  0.26006381  0.43675466     0.11300
H1160       H  0.53716687  0.31501539  0.33665764     0.11300
H1161       H  0.52348857  0.26312665  0.29930894     0.11300
H1162       H  0.45223407  0.20816597  0.40033231     0.11300
C1163       C  0.40200150  0.43000108  0.25943855    -0.14800
C1164       C  0.40612584  0.42247156  0.21572025     0.07300
C1165       C  0.42041950  0.40276074  0.20835089    -0.14800
C1166       C  0.43087350  0.39126415  0.24387871    -0.14800
C1167       C  0.42681422  0.39884939  0.28756576     0.07300
C1168       C  0.41200069  0.41806759  0.29501258    -0.14800
H1169       H  0.39078935  0.44494563  0.26621288     0.11300
H1170       H  0.42378910  0.39644818  0.17508013     0.11300
H1171       H  0.44202965  0.37626350  0.23712914     0.11300
H1172       H  0.40863210  0.42432082  0.32831947     0.11300
C1173       C  0.35764528  0.28044744  0.45579628    -0.14800
C1174       C  0.36905999  0.28720889  0.41186628     0.07300
C1175       C  0.34646750  0.27234461  0.37737404    -0.14800
C1176       C  0.31266513  0.25563562  0.38638038    -0.14800
C1177       C  0.30122656  0.25377529  0.42989452     0.07300
C1178       C  0.32381378  0.26388003  0.46479179    -0.14800
H1179       H  0.37478572  0.29101955  0.48314193     0.11300
H1180       H  0.35461818  0.27676694  0.34337907     0.11300
H1181       H  0.29551139  0.24725935  0.35886634     0.11300
H1182       H  0.31561943  0.26239157  0.49854050     0.11300
C1183       C  0.57767503  0.39916843  0.83663877    -0.14800
C1184       C  0.58311334  0.42903160  0.81829625     0.07300
C1185       C  0.56999469  0.42870245  0.77655743    -0.14800
C1186       C  0.54861930  0.39848714  0.75590643    -0.14800
C1187       C  0.54070554  0.36835849  0.77630912     0.07300
C1188       C  0.55708521  0.36910613  0.81545717    -0.14800
H1189       H  0.58750924  0.39895007  0.86895962     0.11300
H1190       H  0.57365000  0.45143517  0.76204379     0.11300
H1191       H  0.53545175  0.39853058  0.72647743     0.11300
H1192       H  0.55056904  0.34634085  0.83263039     0.11300
C1193       C  0.51383793  0.47553525  0.01378809    -0.14800
C1194       C  0.52208016  0.49183869  0.97299043     0.07300
C1195       C  0.50663438  0.51005983  0.96087096    -0.14800
C1196       C  0.48373591  0.51201987  0.98876264    -0.14800
C1197       C  0.47554669  0.49574473  0.02959189     0.07300
C1198       C  0.49089432  0.47743600  0.04162245    -0.14800
H1199       H  0.52562495  0.46189493  0.02465013     0.11300
H1200       H  0.51268660  0.52341539  0.92994021     0.11300
H1201       H  0.47195064  0.52566374  0.97793252     0.11300
H1202       H  0.48483662  0.46408770  0.07257248     0.11300
C1203       C  0.40473179  0.57361036  0.67281223    -0.14800
C1204       C  0.43458252  0.57631665  0.68722106     0.07300
C1205       C  0.43478031  0.55979208  0.72562515    -0.14800
C1206       C  0.40492913  0.53805242  0.74652687    -0.14800
C1207       C  0.37455917  0.53275765  0.72950275     0.07300
C1208       C  0.37494545  0.55231505  0.69419291    -0.14800
H1209       H  0.40415547  0.58612019  0.64302124     0.11300
H1210       H  0.45750066  0.56133519  0.73699064     0.11300
H1211       H  0.40520580  0.52257326  0.77292446     0.11300
H1212       H  0.35192819  0.54799091  0.67958013     0.11300
C1213       C  0.53309982  0.73223607  0.58796924    -0.14800
C1214       C  0.50566509  0.70261618  0.60274596     0.07300
C1215       C  0.48400051  0.70448179  0.63308417    -0.14800
C1216       C  0.49197266  0.73493131  0.65232187    -0.14800
C1217       C  0.52141116  0.76385785  0.64101472     0.07300
C1218       C  0.54099593  0.76257676  0.60707847    -0.14800
H1219       H  0.55060466  0.73141909  0.56533471     0.11300
H1220       H  0.46326748  0.68208570  0.64595776     0.11300
H1221       H  0.47669008  0.73543162  0.67880567     0.11300
H1222       H  0.56397412  0.78447653  0.59824223     0.11300
C1223       C  0.51718148  0.50312543  0.53933393    -0.14800
C1224       C  0.49949052  0.51902896  0.52662696     0.07300
C1225       C  0.48421382  0.51142244  0.48497569    -0.14800
C1226       C  0.48612076  0.48828213  0.45730873    -0.14800
C1227       C  0.50346533  0.47209349  0.47027389     0.07300
C1228       C  0.51914603  0.48005446  0.51164748    -0.14800
H1229       H  0.52987298  0.50872742  0.57082386     0.11300
H1230       H  0.47126022  0.52375575  0.47341979     0.11300
H1231       H  0.47343223  0.48262766  0.42580598     0.11300
H1232       H  0.53213215  0.46776212  0.52321345     0.11300
C1233       C  0.58992191  0.57183843  0.70680112    -0.14800
C1234       C  0.57205205  0.58821758  0.71299765     0.07300
C1235       C  0.56487891  0.59377679  0.75619146    -0.14800
C1236       C  0.57528165  0.58309440  0.79249833    -0.14800
C1237       C  0.59269536  0.56626656  0.78639301     0.07300
C1238       C  0.59995154  0.56071770  0.74319681    -0.14800
H1239       H  0.59582560  0.56732591  0.67387360     0.11300
H1240       H  0.55137968  0.60665208  0.76201639     0.11300
H1241       H  0.56946558  0.58780052  0.82538404     0.11300
H1242       H  0.61365670  0.54803763  0.73752502     0.11300
C1243       C  0.58156567  0.67171190  0.39817924    -0.14800
C1244       C  0.55859680  0.67805737  0.37678909     0.07300
C1245       C  0.52665460  0.66499592  0.39422815    -0.14800
C1246       C  0.51790851  0.64657891  0.43256903    -0.14800
C1247       C  0.54081788  0.64069964  0.45458560     0.07300
C1248       C  0.57263805  0.65294454  0.43698544    -0.14800
H1249       H  0.60616139  0.68105338  0.38484455     0.11300
H1250       H  0.50824269  0.66912732  0.37834446     0.11300
H1251       H  0.49320490  0.63737413  0.44552776     0.11300
H1252       H  0.59079344  0.64897427  0.45396609     0.11300
C1253       C  0.44514733  0.62306442  0.18799325    -0.14800
C1254       C  0.46231455  0.62430604  0.22658557     0.07300
C1255       C  0.45488180  0.59452142  0.24754255    -0.14800
C1256       C  0.43320400  0.56406598  0.22786003    -0.14800
C1257       C  0.41928544  0.56318188  0.18659717     0.07300
C1258       C  0.42414607  0.59270598  0.16778709    -0.14800
H1259       H  0.45126646  0.64559103  0.17045954     0.11300
H1260       H  0.46864151  0.59490969  0.27657508     0.11300
H1261       H  0.42989816  0.54154325  0.24265539     0.11300
H1262       H  0.41359276  0.59241131  0.13582191     0.11300
C1263       C  0.53067557  0.76032415  0.10667344    -0.14800
C1264       C  0.51884047  0.74806463  0.14896295     0.07300
C1265       C  0.49539081  0.75446219  0.16842496    -0.14800
C1266       C  0.48595407  0.77514322  0.14769133    -0.14800
C1267       C  0.50074447  0.79068551  0.10789627     0.07300
C1268       C  0.52193172  0.78186708  0.08644988    -0.14800
H1269       H  0.54895082  0.75582305  0.09130084     0.11300
H1270       H  0.48608761  0.74524472  0.20119057     0.11300
H1271       H  0.47053390  0.78240236  0.16556737     0.11300
H1272       H  0.53446170  0.79440307  0.05641196     0.11300
C1273       C  0.63357657  0.81508414  0.34591063    -0.14800
C1274       C  0.64195240  0.80478510  0.30694186     0.07300
C1275       C  0.67583288  0.81932718  0.29616849    -0.14800
C1276       C  0.70052250  0.84344702  0.32334379    -0.14800
C1277       C  0.69216491  0.85382859  0.36224079     0.07300
C1278       C  0.65827632  0.83923892  0.37307556    -0.14800
H1279       H  0.60796564  0.80409434  0.35583551     0.11300
H1280       H  0.68342115  0.81176839  0.26674747     0.11300
H1281       H  0.72613357  0.85443169  0.31339400     0.11300
H1282       H  0.65069838  0.84681994  0.40248263     0.11300
C1283       C  0.80273545  0.89850421  0.05713047    -0.14800
C1284       C  0.81623684  0.89828395  0.01598561     0.07300
C1285       C  0.84113169  0.92817885  0.99824728    -0.14800
C1286       C  0.85034477  0.95818851  0.01945045    -0.14800
C1287       C  0.83401991  0.95877483  0.05794185     0.07300
C1288       C  0.81127179  0.92859670  0.07769239    -0.14800
H1289       H  0.78343772  0.87570559  0.07127973     0.11300
H1290       H  0.85195684  0.92844716  0.96657535     0.11300
H1291       H  0.86714761  0.98104464  0.00284222     0.11300
H1292       H  0.79758619  0.92843717  0.10659396     0.11300
C1293       C  0.72696001  0.67333649  0.96863720    -0.14800
C1294       C  0.73949070  0.69617061  0.93424014     0.07300
C1295       C  0.73887966  0.68494605  0.89086091    -0.14800
C1296       C  0.72069504  0.65137115  0.88091556    -0.14800
C1297       C  0.70353126  0.62883030  0.91449167     0.07300
C1298       C  0.70915283  0.63973349  0.95874898    -0.14800
H1299       H  0.72745421  0.68134647  0.00222247     0.11300
H1300       H  0.74920992  0.70236939  0.86379941     0.11300
H1301       H  0.71722374  0.64355542  0.84672261     0.11300
H1302       H  0.69685236  0.62248129  0.98557009     0.11300
C1303       C  0.67814061  0.75429014  0.12773925    -0.14800
C1304       C  0.64412305  0.73410273  0.12095953     0.07300
C1305       C  0.63182659  0.72583415  0.07756513    -0.14800
C1306       C  0.65321247  0.73771227  0.04157652    -0.14800
C1307       C  0.68720205  0.75849333  0.04831516     0.07300
C1308       C  0.69946834  0.76663596  0.09173146    -0.14800
H1309       H  0.68817263  0.76101740  0.16083582     0.11300
H1310       H  0.60563484  0.71001900  0.07144060     0.11300
H1311       H  0.64314276  0.73082699  0.00853233     0.11300
H1312       H  0.72567721  0.78230437  0.09793898     0.11300
C1313       C  0.70177949  0.84634261  0.81743763    -0.14800
C1314       C  0.69372205  0.83037518  0.85855186     0.07300
C1315       C  0.66001479  0.81291609  0.87079838    -0.14800
C1316       C  0.63521043  0.81141187  0.84299533    -0.14800
C1317       C  0.64323552  0.82746731  0.80200631     0.07300
C1318       C  0.67692827  0.84502599  0.78970245    -0.14800
H1319       H  0.72718208  0.85936637  0.80635647     0.11300
H1320       H  0.65259217  0.79986901  0.90193947     0.11300
H1321       H  0.60982640  0.79837443  0.85415229     0.11300
H1322       H  0.68421021  0.85818053  0.75862612     0.11300
C1323       C  0.79506252  0.75377606  0.75115370    -0.14800
C1324       C  0.78463270  0.76166275  0.71208730     0.07300
C1325       C  0.76513223  0.77670368  0.71365360    -0.14800
C1326       C  0.75674204  0.78457766  0.75416388    -0.14800
C1327       C  0.76884989  0.77851729  0.79313755     0.07300
C1328       C  0.78760005  0.76264740  0.79161935    -0.14800
H1329       H  0.81045015  0.74249065  0.75019869     0.11300
H1330       H  0.75736027  0.78327485  0.68350918     0.11300
H1331       H  0.74246556  0.79708051  0.75501095     0.11300
H1332       H  0.79710237  0.75792027  0.82167242     0.11300
C1333       C  0.80957800  0.87358292  0.58176866    -0.14800
C1334       C  0.83184774  0.86556062  0.56191271     0.07300
C1335       C  0.84850211  0.88231537  0.52354446    -0.14800
C1336       C  0.83993379  0.90353441  0.50237588    -0.14800
C1337       C  0.81539594  0.90906726  0.52006910     0.07300
C1338       C  0.80171637  0.89563060  0.56123397    -0.14800
H1339       H  0.79575611  0.86021870  0.61069761     0.11300
H1340       H  0.86497052  0.87579474  0.50696571     0.11300
H1341       H  0.85078760  0.91383103  0.47059811     0.11300
H1342       H  0.78270965  0.89963926  0.57527368     0.11300
C1343       C  0.64493368  0.70865039  0.54754430    -0.14800
C1344       C  0.63349921  0.70085795  0.59140563     0.07300
C1345       C  0.65605315  0.71471409  0.62608989    -0.14800
C1346       C  0.68983545  0.73159525  0.61706906    -0.14800
C1347       C  0.70127464  0.73450648  0.57334220     0.07300
C1348       C  0.67874747  0.72531334  0.53852065    -0.14800
H1349       H  0.62781023  0.69883649  0.52010546     0.11300
H1350       H  0.64788150  0.70941874  0.66004936     0.11300
H1351       H  0.70690967  0.73918048  0.64449522     0.11300
H1352       H  0.68694893  0.72759360  0.50466562     0.11300
C1353       C  0.64960838  0.54993974  0.12306757    -0.14800
C1354       C  0.68401196  0.56301172  0.12312708     0.07300
C1355       C  0.70094009  0.56867228  0.08326749    -0.14800
C1356       C  0.68332773  0.55949196  0.04368858    -0.14800
C1357       C  0.64877075  0.54538336  0.04365881     0.07300
C1358       C  0.63202725  0.54172635  0.08334153    -0.14800
H1359       H  0.63617957  0.54483213  0.15400706     0.11300
H1360       H  0.72741350  0.57831607  0.08295733     0.11300
H1361       H  0.69644246  0.56235534  0.01325461     0.11300
H1362       H  0.60543726  0.53060978  0.08376448     0.11300
C1363       C  0.59476001  0.46122471  0.25716921    -0.14800
C1364       C  0.62432518  0.46132849  0.26681636     0.07300
C1365       C  0.62269002  0.43533605  0.29193726    -0.14800
C1366       C  0.59274829  0.41236122  0.31192043    -0.14800
C1367       C  0.56429119  0.41509293  0.30658662     0.07300
C1368       C  0.56506779  0.43851596  0.27724667    -0.14800
H1369       H  0.59542620  0.48121991  0.23827141     0.11300
H1370       H  0.64511426  0.43516468  0.30054350     0.11300
H1371       H  0.59254926  0.39442354  0.33471835     0.11300
H1372       H  0.54345505  0.44112054  0.27293575     0.11300
C1373       C  0.73678759  0.62893868  0.42357457    -0.14800
C1374       C  0.74525476  0.64122771  0.38031141     0.07300
C1375       C  0.76451267  0.67540277  0.37389746    -0.14800
C1376       C  0.77529432  0.69686840  0.41004302    -0.14800
C1377       C  0.76650845  0.68461890  0.45331537     0.07300
C1378       C  0.74710923  0.65042240  0.45966569    -0.14800
H1379       H  0.72166978  0.60267921  0.42951035     0.11300
H1380       H  0.77137447  0.68552281  0.34094776     0.11300
H1381       H  0.79011842  0.72314306  0.40401106     0.11300
H1382       H  0.73988016  0.64025296  0.49253491     0.11300
C1383       C  0.62363966  0.59624572  0.21512506    -0.14800
C1384       C  0.63102830  0.59206913  0.25900472     0.07300
C1385       C  0.61527485  0.59842030  0.29359447    -0.14800
C1386       C  0.59638598  0.61327585  0.28458182    -0.14800
C1387       C  0.59330286  0.62204041  0.24100407     0.07300
C1388       C  0.60483034  0.61108971  0.20620038    -0.14800
H1389       H  0.63509792  0.59104385  0.18768988     0.11300
H1390       H  0.62025595  0.59510466  0.32755759     0.11300
H1391       H  0.58711051  0.62111719  0.31217226     0.11300
H1392       H  0.60269003  0.61745209  0.17225530     0.11300
C1393       C  0.77991374  0.47923435  0.35144040    -0.14800
C1394       C  0.79711468  0.49639421  0.38944726     0.07300
C1395       C  0.78945967  0.51921077  0.40848307    -0.14800
C1396       C  0.76735201  0.52695418  0.38766129    -0.14800
C1397       C  0.75323368  0.51255172  0.34694033     0.07300
C1398       C  0.75853166  0.48762832  0.32998045    -0.14800
H1399       H  0.78612415  0.46237850  0.33534044     0.11300
H1400       H  0.80318344  0.53352472  0.43699348     0.11300
H1401       H  0.76378610  0.54638240  0.40114419     0.11300
H1402       H  0.74783973  0.47622206  0.29852849     0.11300
C1403       C  0.21253309  0.73173376  0.08655298    -0.14800
C1404       C  0.20727258  0.70209023  0.10584700     0.07300
C1405       C  0.22711922  0.70377816  0.14162891    -0.14800
C1406       C  0.24833112  0.73424184  0.16157452    -0.14800
C1407       C  0.25063040  0.76341461  0.14523644     0.07300
C1408       C  0.23413041  0.76226026  0.10611075    -0.14800
H1409       H  0.19689929  0.73099740  0.05960862     0.11300
H1410       H  0.22291021  0.68135898  0.15783188     0.11300
H1411       H  0.26089495  0.73473700  0.19189722     0.11300
H1412       H  0.23542671  0.78446321  0.09320929     0.11300
C1413       C  0.99090911  0.57351070  0.20957001    -0.14800
C1414       C  0.02495991  0.59335842  0.21669170     0.07300
C1415       C  0.03679950  0.60172418  0.26030226    -0.14800
C1416       C  0.01497266  0.59046355  0.29605434    -0.14800
C1417       C  0.98092207  0.57015047  0.28896639     0.07300
C1418       C  0.96916076  0.56180264  0.24529076    -0.14800
H1419       H  0.98112743  0.56659395  0.17638913     0.11300
H1420       H  0.06299056  0.61721724  0.26677287     0.11300
H1421       H  0.02476596  0.59740847  0.32921585     0.11300
H1422       H  0.94300381  0.54632609  0.23859809     0.11300
C1423       C  0.91607420  0.83645890  0.98990856    -0.14800
C1424       C  0.91603349  0.80734248  0.97829866     0.07300
C1425       C  0.89440624  0.78698473  0.94535394    -0.14800
C1426       C  0.87094685  0.79392943  0.92735603    -0.14800
C1427       C  0.86883264  0.82139294  0.94189780     0.07300
C1428       C  0.89274061  0.84359589  0.97155758    -0.14800
H1429       H  0.93228893  0.85218319  0.01587286     0.11300
H1430       H  0.89363883  0.76417072  0.93653345     0.11300
H1431       H  0.85220048  0.77597163  0.90542912     0.11300
H1432       H  0.89096487  0.86426760  0.98436753     0.11300
C1433       C  0.04132815  0.88476593  0.02248109    -0.14800
C1434       C  0.04105316  0.86689850  0.05978964     0.07300
C1435       C  0.07147893  0.87439392  0.07914919    -0.14800
C1436       C  0.10150016  0.89681421  0.05902342    -0.14800
C1437       C  0.10142478  0.91153485  0.01880195     0.07300
C1438       C  0.07126520  0.90652777  0.00177194    -0.14800
H1439       H  0.01834443  0.87872415  0.00608786     0.11300
H1440       H  0.07193041  0.86021425  0.10713373     0.11300
H1441       H  0.12444958  0.90011904  0.07249998     0.11300
H1442       H  0.07071712  0.91759555  0.97061346     0.11300
C1443       C  0.84377842  0.65157119  0.12221866    -0.14800
C1444       C  0.85990790  0.68519985  0.13475293     0.07300
C1445       C  0.85120545  0.69321465  0.17529673    -0.14800
C1446       C  0.82745099  0.66847604  0.20257404    -0.14800
C1447       C  0.81135753  0.63481330  0.19022764     0.07300
C1448       C  0.81976008  0.62677830  0.14942032    -0.14800
H1449       H  0.85005427  0.64429317  0.09144552     0.11300
H1450       H  0.86338711  0.71857717  0.18656853     0.11300
H1451       H  0.82139309  0.67591445  0.23338322     0.11300
H1452       H  0.80748165  0.60139329  0.13822380     0.11300
C1453       C  0.06096429  0.73151989  0.03929861    -0.14800
C1454       C  0.04708397  0.74070184  0.07333361     0.07300
C1455       C  0.05589055  0.73891326  0.11736999    -0.14800
C1456       C  0.07296569  0.72235910  0.12758538    -0.14800
C1457       C  0.08144832  0.70774145  0.09371884     0.07300
C1458       C  0.07832672  0.71527999  0.04949496    -0.14800
H1459       H  0.05501927  0.73312179  0.00517513     0.11300
H1460       H  0.04618706  0.74682472  0.14422498     0.11300
H1461       H  0.07569154  0.71750088  0.16181135     0.11300
H1462       H  0.08567862  0.70506145  0.02265420     0.11300
C1463       C  0.86223961  0.51295074  0.56553332    -0.14800
C1464       C  0.89286453  0.53442415  0.54604918     0.07300
C1465       C  0.91421134  0.56472998  0.56657776    -0.14800
C1466       C  0.90458977  0.57358450  0.60565943    -0.14800
C1467       C  0.87371336  0.55203648  0.62467865     0.07300
C1468       C  0.85283232  0.52159887  0.60436523    -0.14800
H1469       H  0.84525440  0.48942505  0.55045648     0.11300
H1470       H  0.93781131  0.58182798  0.55185911     0.11300
H1471       H  0.92136312  0.59693603  0.62127913     0.11300
H1472       H  0.82902039  0.50437288  0.61846393     0.11300
C1473       C  0.76770192  0.53529765  0.89359610    -0.14800
C1474       C  0.76761951  0.51653812  0.85756655     0.07300
C1475       C  0.73783914  0.48846347  0.84494283    -0.14800
C1476       C  0.70801064  0.48094265  0.86555480    -0.14800
C1477       C  0.70758159  0.50186912  0.89838088     0.07300
C1478       C  0.73787237  0.52807153  0.91376208    -0.14800
H1479       H  0.79034659  0.55722228  0.90350143     0.11300
H1480       H  0.73732057  0.47384463  0.81691255     0.11300
H1481       H  0.68501192  0.46126933  0.85219420     0.11300
H1482       H  0.73807495  0.54505394  0.93825626     0.11300
C1483       C  0.84621734  0.66886339  0.71328255    -0.14800
C1484       C  0.83178327  0.63611197  0.69747984     0.07300
C1485       C  0.81902496  0.62960392  0.65438526    -0.14800
C1486       C  0.82102461  0.65510904  0.62773665    -0.14800
C1487       C  0.83577095  0.68793481  0.64331338     0.07300
C1488       C  0.84806479  0.69436820  0.68669326    -0.14800
H1489       H  0.85662665  0.67491870  0.74621702     0.11300
H1490       H  0.80848894  0.60499891  0.64069644     0.11300
H1491       H  0.81072864  0.64899765  0.59475183     0.11300
H1492       H  0.85863128  0.71897877  0.70034560     0.11300
C1493       C  0.90020112  0.62920833  0.92304729    -0.14800
C1494       C  0.90800077  0.64059464  0.87930995     0.07300
C1495       C  0.92817520  0.67450434  0.87154756    -0.14800
C1496       C  0.93996025  0.69664452  0.90690475    -0.14800
C1497       C  0.93221964  0.68514475  0.95058541     0.07300
C1498       C  0.91243127  0.65124470  0.95833064    -0.14800
H1499       H  0.88484322  0.60314017  0.93011722     0.11300
H1500       H  0.93461863  0.68390747  0.83822492     0.11300
H1501       H  0.95538817  0.72274471  0.90010512     0.11300
H1502       H  0.90602674  0.64181073  0.99165035     0.11300
C1503       C  0.01326509  0.75678053  0.26709785    -0.14800
C1504       C  0.01610506  0.78391735  0.29082562     0.07300
C1505       C  0.00082142  0.80107345  0.27444054    -0.14800
C1506       C  0.98375743  0.79198883  0.23489046    -0.14800
C1507       C  0.98139536  0.76546732  0.21067020     0.07300
C1508       C  0.99578336  0.74747129  0.22712123    -0.14800
H1509       H  0.02450012  0.74293064  0.27933570     0.11300
H1510       H  0.00222735  0.82191157  0.29200671     0.11300
H1511       H  0.97279837  0.80615579  0.22278690     0.11300
H1512       H  0.99451505  0.72714451  0.20840109     0.11300
C1513       C  0.09379437  0.92701347  0.49725059    -0.14800
C1514       C  0.08799688  0.89730505  0.51660160     0.07300
C1515       C  0.10164692  0.89818302  0.55811224    -0.14800
C1516       C  0.12384960  0.92861829  0.57754248    -0.14800
C1517       C  0.13201058  0.95845951  0.55621735     0.07300
C1518       C  0.11527289  0.95736366  0.51722994    -0.14800
H1519       H  0.08349118  0.92680391  0.46512817     0.11300
H1520       H  0.09765159  0.87555282  0.57340251     0.11300
H1521       H  0.13723867  0.92885541  0.60689363     0.11300
H1522       H  0.12191599  0.97991016  0.49942081     0.11300
C1523       C  0.93247300  0.80708327  0.42533778    -0.14800
C1524       C  0.96307926  0.82853008  0.44540545     0.07300
C1525       C  0.96335441  0.84408488  0.48509834    -0.14800
C1526       C  0.93370137  0.83533851  0.50692797    -0.14800
C1527       C  0.90328226  0.81174834  0.48866326     0.07300
C1528       C  0.90271981  0.79912888  0.44653032    -0.14800
H1529       H  0.93161614  0.79392541  0.39550648     0.11300
H1530       H  0.98653192  0.85979307  0.50195274     0.11300
H1531       H  0.93460564  0.84541759  0.53941028     0.11300
H1532       H  0.87949449  0.78080495  0.43198277     0.11300
C1533       C  0.15148462  0.84537793  0.31994299    -0.14800
C1534       C  0.14274146  0.82847881  0.36034805     0.07300
C1535       C  0.15874824  0.81079718  0.37258661    -0.14800
C1536       C  0.18272842  0.81005968  0.34536446    -0.14800
C1537       C  0.19142200  0.82691492  0.30491176     0.07300
C1538       C  0.17544529  0.84463322  0.29273189    -0.14800
H1539       H  0.13935522  0.85864775  0.30890654     0.11300
H1540       H  0.15245443  0.79708268  0.40324131     0.11300
H1541       H  0.19491258  0.79684977  0.35642013     0.11300
H1542       H  0.18175419  0.85838585  0.26210040     0.11300
C1543       C  0.94987849  0.68433151  0.38622709    -0.14800
C1544       C  0.95900853  0.69572072  0.42995889     0.07300
C1545       C  0.94655384  0.67302947  0.46455669    -0.14800
C1546       C  0.92985299  0.63928165  0.45513720    -0.14800
C1547       C  0.92589706  0.62802567  0.41109036     0.07300
C1548       C  0.93360101  0.65061540  0.37677886    -0.14800
H1549       H  0.95858955  0.70154995  0.35890059     0.11300
H1550       H  0.95289185  0.68112661  0.49843771     0.11300
H1551       H  0.92322495  0.62214028  0.48236820     0.11300
H1552       H  0.93039792  0.64261361  0.34270958     0.11300
C1553       C  0.14930861  0.67493505  0.90017397    -0.14800
C1554       C  0.12796160  0.68394195  0.87994293     0.07300
C1555       C  0.09752872  0.67511604  0.90001835    -0.14800
C1556       C  0.08843740  0.65678987  0.93934970    -0.14800
C1557       C  0.10983967  0.64742554  0.95892736     0.07300
C1558       C  0.14041591  0.65700206  0.93903535    -0.14800
H1559       H  0.17295167  0.68141754  0.88557152     0.11300
H1560       H  0.08053006  0.68154232  0.88474908     0.11300
H1561       H  0.06500543  0.65026623  0.95462081     0.11300
H1562       H  0.15762377  0.65049229  0.95345517     0.11300
C1563       C  0.23601025  0.76019704  0.60702711    -0.14800
C1564       C  0.23584001  0.74699485  0.64858062     0.07300
C1565       C  0.26589520  0.75269901  0.66692166    -0.14800
C1566       C  0.29594457  0.77389573  0.64613511    -0.14800
C1567       C  0.29640781  0.79053934  0.60743572     0.07300
C1568       C  0.26616785  0.78218634  0.58683705    -0.14800
H1569       H  0.21311634  0.75620574  0.59242953     0.11300
H1570       H  0.26625021  0.74269838  0.69902057     0.11300
H1571       H  0.31881432  0.78056355  0.66329300     0.11300
H1572       H  0.26591084  0.79536186  0.55757550     0.11300
C1573       C  0.02354344  0.61777960  0.78702034    -0.14800
C1574       C  0.03501704  0.62480696  0.74308527     0.07300
C1575       C  0.01255278  0.60941803  0.70860252    -0.14800
C1576       C  0.97874411  0.59106670  0.71770637    -0.14800
C1577       C  0.96702696  0.58817453  0.76131676     0.07300
C1578       C  0.98974852  0.59968763  0.79608884    -0.14800
H1579       H  0.04052022  0.62881033  0.81443852     0.11300
H1580       H  0.02069477  0.61411609  0.67462225     0.11300
H1581       H  0.96159511  0.58186599  0.69021413     0.11300
H1582       H  0.98146635  0.59771799  0.82987373     0.11300
C1583       C  0.07909737  0.75317584  0.62761725    -0.14800
C1584       C  0.09747317  0.73738949  0.62077833     0.07300
C1585       C  0.10441681  0.73213659  0.57726687    -0.14800
C1586       C  0.09284059  0.74211209  0.54132606    -0.14800
C1587       C  0.07462797  0.75804603  0.54820663     0.07300
C1588       C  0.06800608  0.76364842  0.59168687    -0.14800
H1589       H  0.07339719  0.75753759  0.66073804     0.11300
H1590       H  0.11844079  0.71986612  0.57093364     0.11300
H1591       H  0.09836974  0.73761840  0.50817605     0.11300
H1592       H  0.05382876  0.77576786  0.59795647     0.11300
C1593       C  0.15708962  0.82524651  0.79043309    -0.14800
C1594       C  0.17179047  0.80702486  0.80571280     0.07300
C1595       C  0.18426349  0.81282299  0.84896278    -0.14800
C1596       C  0.18205049  0.83604645  0.87604118    -0.14800
C1597       C  0.16726108  0.85419932  0.86082388     0.07300
C1598       C  0.15488505  0.84848438  0.81751533    -0.14800
H1599       H  0.14677783  0.82118993  0.75745572     0.11300
H1600       H  0.19489958  0.79876069  0.86232636     0.11300
H1601       H  0.19233784  0.84006908  0.90903418     0.11300
H1602       H  0.14423076  0.86253322  0.80417370     0.11300
C1603       C  0.23488279  0.46096979  0.10973248    -0.14800
C1604       C  0.23474370  0.47738145  0.14825053     0.07300
C1605       C  0.26440484  0.50435716  0.16343105    -0.14800
C1606       C  0.29438822  0.51279120  0.14280396    -0.14800
C1607       C  0.29504264  0.49367040  0.10764572     0.07300
C1608       C  0.26493119  0.46896294  0.08965200    -0.14800
H1609       H  0.21222399  0.43998055  0.09777590     0.11300
H1610       H  0.26465396  0.51722359  0.19327536     0.11300
H1611       H  0.31727268  0.53126752  0.15797992     0.11300
H1612       H  0.26494398  0.45335264  0.06325630     0.11300
C1613       C  0.13423134  0.56147161  0.22765563    -0.14800
C1614       C  0.14980435  0.57773312  0.18859005     0.07300
C1615       C  0.17617208  0.57451406  0.17222637    -0.14800
C1616       C  0.18490721  0.55297876  0.19237530    -0.14800
C1617       C  0.16682507  0.53378929  0.22856380     0.07300
C1618       C  0.14259108  0.53951536  0.24736857    -0.14800
H1619       H  0.11364824  0.56338207  0.24051990     0.11300
H1620       H  0.18836057  0.58679697  0.14188553     0.11300
H1621       H  0.20284873  0.54827127  0.17636110     0.11300
H1622       H  0.12760384  0.52425955  0.27444645     0.11300
C1623       C  0.15076067  0.32084762  0.29413768    -0.14800
C1624       C  0.16951074  0.35456335  0.30608138     0.07300
C1625       C  0.18714921  0.36252277  0.34595708    -0.14800
C1626       C  0.18615947  0.33762876  0.37292916    -0.14800
C1627       C  0.16751367  0.30393840  0.36097000     0.07300
C1628       C  0.14980501  0.29593078  0.32110860    -0.14800
H1629       H  0.13636856  0.31357183  0.26396234     0.11300
H1630       H  0.20120564  0.38794958  0.35679851     0.11300
H1631       H  0.20050345  0.34493188  0.40315751     0.11300
H1632       H  0.13573381  0.27049926  0.31031786     0.11300
C1633       C  0.12342961  0.18391352  0.08028159    -0.14800
C1634       C  0.13161653  0.16245853  0.05824588     0.07300
C1635       C  0.11418603  0.14659022  0.01974074    -0.14800
C1636       C  0.09217217  0.15519102  0.00074820    -0.14800
C1637       C  0.08663347  0.17917248  0.02048279     0.07300
C1638       C  0.10082743  0.19200401  0.06173719    -0.14800
H1639       H  0.13727949  0.19724278  0.10930174     0.11300
H1640       H  0.12076709  0.13087545  0.00132224     0.11300
H1641       H  0.08154401  0.14513458  0.96872716     0.11300
H1642       H  0.09713562  0.21074883  0.07727824     0.11300
C1643       C  0.96203510  0.10736477  0.97862666    -0.14800
C1644       C  0.96311157  0.12547842  0.94122742     0.07300
C1645       C  0.93314145  0.11882951  0.92123479    -0.14800
C1646       C  0.90275304  0.09700073  0.94095800    -0.14800
C1647       C  0.90213715  0.08216412  0.98134226     0.07300
C1648       C  0.93177989  0.08623650  0.99891108    -0.14800
H1649       H  0.98471132  0.11281045  0.99542591     0.11300
H1650       H  0.93339260  0.13322835  0.89309406     0.11300
H1651       H  0.88015103  0.09428611  0.92706509     0.11300
H1652       H  0.93171864  0.07499335  0.03019289     0.11300
C1653       C  0.07318247  0.29586039  0.09239236    -0.14800
C1654       C  0.07516864  0.30742546  0.04889935     0.07300
C1655       C  0.08787580  0.34130351  0.04207666    -0.14800
C1656       C  0.09854318  0.36313138  0.07784714    -0.14800
C1657       C  0.09621038  0.35149590  0.12128245     0.07300
C1658       C  0.08332776  0.31764094  0.12822488    -0.14800
H1659       H  0.06344430  0.26985793  0.09886144     0.11300
H1660       H  0.08965496  0.35096202  0.00911284     0.11300
H1661       H  0.10826401  0.38916276  0.07154631     0.11300
H1662       H  0.08148959  0.30808237  0.16127486     0.11300
C1663       C  0.16076460  0.33741024  0.87492938    -0.14800
C1664       C  0.14497209  0.30371340  0.86291658     0.07300
C1665       C  0.15312864  0.29553959  0.82206589    -0.14800
C1666       C  0.17637963  0.32025849  0.79421116    -0.14800
C1667       C  0.19218940  0.35395124  0.80625717     0.07300
C1668       C  0.18399885  0.36211863  0.84708356    -0.14800
H1669       H  0.15484186  0.34482550  0.90585521     0.11300
H1670       H  0.14101110  0.27008831  0.81114471     0.11300
H1671       H  0.18231995  0.31285981  0.76328601     0.11300
H1672       H  0.19609632  0.38756553  0.85801910     0.11300
C1673       C  0.08699544  0.42148720  0.43967113    -0.14800
C1674       C  0.10580065  0.45342660  0.45737847     0.07300
C1675       C  0.13385453  0.47701694  0.43480791    -0.14800
C1676       C  0.14359662  0.46887816  0.39590858    -0.14800
C1677       C  0.12559155  0.43683388  0.37840208     0.07300
C1678       C  0.09694980  0.41316274  0.40034892    -0.14800
H1679       H  0.06542898  0.40281237  0.45692848     0.11300
H1680       H  0.14871590  0.50183365  0.44772122     0.11300
H1681       H  0.16555619  0.48786441  0.37966213     0.11300
H1682       H  0.08231439  0.38845113  0.38709924     0.11300
C1683       C  0.17536607  0.59102887  0.67469702    -0.14800
C1684       C  0.14772419  0.56163911  0.68917972     0.07300
C1685       C  0.13048704  0.56245009  0.72643193    -0.14800
C1686       C  0.13851130  0.59274033  0.74588449    -0.14800
C1687       C  0.16408064  0.62260313  0.72864271     0.07300
C1688       C  0.18374014  0.62131182  0.69463480    -0.14800
H1689       H  0.18889038  0.59084766  0.64581439     0.11300
H1690       H  0.10894824  0.54009829  0.73786213     0.11300
H1691       H  0.12245169  0.59315194  0.77130747     0.11300
H1692       H  0.20289976  0.64393079  0.67988781     0.11300
C1693       C  0.20990331  0.46831885  0.59115196    -0.14800
C1694       C  0.20398339  0.49240638  0.60993173     0.07300
C1695       C  0.22381912  0.51130587  0.64533085    -0.14800
C1696       C  0.24626067  0.50349897  0.66491265    -0.14800
C1697       C  0.24976564  0.47727571  0.64867865     0.07300
C1698       C  0.23284011  0.46096421  0.61019015    -0.14800
H1699       H  0.19423191  0.45277335  0.56464333     0.11300
H1700       H  0.21902641  0.52920720  0.66126819     0.11300
H1701       H  0.25893356  0.51618159  0.69489275     0.11300
H1702       H  0.23489746  0.44042637  0.59750363     0.11300
C1703       C  0.03404415  0.51283173  0.48945981    -0.14800
C1704       C  0.02550528  0.49568390  0.52967430     0.07300
C1705       C  0.99167388  0.47748338  0.54102997    -0.14800
C1706       C  0.96716037  0.47654954  0.51317280    -0.14800
C1707       C  0.97570089  0.49379569  0.47304401     0.07300
C1708       C  0.00952595  0.51191677  0.46161274    -0.14800
H1709       H  0.05960081  0.52642685  0.47907101     0.11300
H1710       H  0.98398975  0.46350456  0.57145865     0.11300
H1711       H  0.94160088  0.46295606  0.52357480     0.11300
H1712       H  0.01719868  0.52590518  0.43119186     0.11300
C1713       C  0.82523587  0.41735772  0.83533426    -0.14800
C1714       C  0.85069528  0.41315445  0.81775099     0.07300
C1715       C  0.86470773  0.42783853  0.77724607    -0.14800
C1716       C  0.85613279  0.44961209  0.75740333    -0.14800
C1717       C  0.83311781  0.45656564  0.77745241     0.07300
C1718       C  0.81617844  0.43857981  0.81500555    -0.14800
H1719       H  0.81413556  0.40618286  0.86666227     0.11300
H1720       H  0.88448621  0.42503978  0.76328596     0.11300
H1721       H  0.87018487  0.46386080  0.72911061     0.11300
H1722       H  0.79912024  0.44416530  0.83182250     0.11300
C1723       C  0.77948125  0.28986556  0.85638617    -0.14800
C1724       C  0.79617717  0.29040133  0.89516503     0.07300
C1725       C  0.78857006  0.26021413  0.91502067    -0.14800
C1726       C  0.76719471  0.23014997  0.89420193    -0.14800
C1727       C  0.75373122  0.23000231  0.85284782     0.07300
C1728       C  0.75879869  0.25988369  0.83500881    -0.14800
H1729       H  0.78570932  0.31272604  0.83969385     0.11300
H1730       H  0.80194055  0.26003893  0.94417648     0.11300
H1731       H  0.76365295  0.20734557  0.90834335     0.11300
H1732       H  0.74852750  0.26018406  0.80305943     0.11300
C1733       C  0.93183552  0.28165944  0.95438654    -0.14800
C1734       C  0.92709265  0.28873500  0.91059575     0.07300
C1735       C  0.93529256  0.27455294  0.87583131    -0.14800
C1736       C  0.95258105  0.25795372  0.88459403    -0.14800
C1737       C  0.96185688  0.25548348  0.92814775     0.07300
C1738       C  0.94925253  0.26524710  0.96312143    -0.14800
H1739       H  0.92502557  0.29173832  0.98196355     0.11300
H1740       H  0.93158181  0.27927091  0.84193252     0.11300
H1741       H  0.96148205  0.24989144  0.85698338     0.11300
H1742       H  0.95576828  0.26338821  0.99687783     0.11300
C1743       C  0.96511628  0.39465978  0.74481310    -0.14800
C1744       C  0.97727221  0.40120238  0.78843178     0.07300
C1745       C  0.01148439  0.41897193  0.79545653    -0.14800
C1746       C  0.03314817  0.43013512  0.75969301    -0.14800
C1747       C  0.02108055  0.42327383  0.71608886     0.07300
C1748       C  0.98683484  0.40535641  0.70898918    -0.14800
H1749       H  0.93878993  0.38087347  0.73835663     0.11300
H1750       H  0.02151967  0.42444282  0.82864646     0.11300
H1751       H  0.05947399  0.44379041  0.76625896     0.11300
H1752       H  0.97685140  0.39976812  0.67579050     0.11300
C1753       C  0.00887037  0.48933007  0.96214249    -0.14800
C1754       C  0.97565636  0.47157608  0.97633782     0.07300
C1755       C  0.96842038  0.47829807  0.01879747    -0.14800
C1756       C  0.99345070  0.50248830  0.04570509    -0.14800
C1757       C  0.02656678  0.52060121  0.03116331     0.07300
C1758       C  0.03388315  0.51343657  0.98905591    -0.14800
H1759       H  0.01564014  0.48449491  0.93000437     0.11300
H1760       H  0.94348800  0.46450397  0.03153350     0.11300
H1761       H  0.98673647  0.50737670  0.07784366     0.11300
H1762       H  0.05882042  0.52717633  0.97629763     0.11300
C1763       C  0.99184034  0.23165890  0.73268782    -0.14800
C1764       C  0.98425109  0.20164073  0.71243572     0.07300
C1765       C  0.99620994  0.18215454  0.73102058    -0.14800
C1766       C  0.01491759  0.19208492  0.76932399    -0.14800
C1767       C  0.02217240  0.22175652  0.79011464     0.07300
C1768       C  0.01087657  0.24176064  0.77135213    -0.14800
H1769       H  0.98339557  0.24737857  0.71841484     0.11300
H1770       H  0.99106481  0.15904708  0.71597906     0.11300
H1771       H  0.02330015  0.17617310  0.78311667     0.11300
H1772       H  0.01586777  0.26454589  0.78726474     0.11300
C1773       C  0.89966070  0.09455364  0.44224305    -0.14800
C1774       C  0.91681190  0.09522923  0.48048010     0.07300
C1775       C  0.91470746  0.06584068  0.49556534    -0.14800
C1776       C  0.89303168  0.03560683  0.47536157    -0.14800
C1777       C  0.87267281  0.03441257  0.44050712     0.07300
C1778       C  0.87765430  0.06429504  0.42244026    -0.14800
H1779       H  0.90078918  0.11692853  0.43035410     0.11300
H1780       H  0.92776435  0.06596373  0.52520495     0.11300
H1781       H  0.88902589  0.01297719  0.49067396     0.11300
H1782       H  0.86160632  0.06392716  0.39630836     0.11300
C1783       C  0.04167903  0.14468266  0.52654902    -0.14800
C1784       C  0.04081411  0.16355000  0.56195411     0.07300
C1785       C  0.07091858  0.18884841  0.57926175    -0.14800
C1786       C  0.10091185  0.19769158  0.55833823    -0.14800
C1787       C  0.10113671  0.18145164  0.51969775     0.07300
C1788       C  0.07165989  0.15386538  0.50518519    -0.14800
H1789       H  0.01885294  0.12568812  0.51189126     0.11300
H1790       H  0.07081189  0.20427018  0.60587282     0.11300
H1791       H  0.12341247  0.21901585  0.56998084     0.11300
H1792       H  0.07149560  0.14092924  0.47545141     0.11300
C1793       C  0.84427663  0.17891817  0.63087558    -0.14800
C1794       C  0.85803972  0.15878495  0.64108723     0.07300
C1795       C  0.84706530  0.13954151  0.67952578    -0.14800
C1796       C  0.82308805  0.14039221  0.70670090    -0.14800
C1797       C  0.80942453  0.16062167  0.69648731     0.07300
C1798       C  0.82039661  0.17981917  0.65805147    -0.14800
H1799       H  0.85233736  0.19454727  0.60189138     0.11300
H1800       H  0.85739171  0.12428196  0.68902694     0.11300
H1801       H  0.81495790  0.12478065  0.73569705     0.11300
H1802       H  0.81016120  0.19516250  0.64854938     0.11300
C1803       C  0.05620020  0.31646118  0.54512617    -0.14800
C1804       C  0.04153743  0.29388554  0.57952980     0.07300
C1805       C  0.04841781  0.30537302  0.62351403    -0.14800
C1806       C  0.06475958  0.33914194  0.63266219    -0.14800
C1807       C  0.07467892  0.36166941  0.59788329     0.07300
C1808       C  0.07281207  0.35024303  0.55430457    -0.14800
H1809       H  0.05176720  0.30828648  0.51110391     0.11300
H1810       H  0.03808973  0.28829829  0.65085713     0.11300
H1811       H  0.06627490  0.34730440  0.66644878     0.11300
H1812       H  0.08112926  0.36737183  0.52687772     0.11300
C1813       C  0.85828871  0.32669470  0.11049717    -0.14800
C1814       C  0.87682071  0.31300520  0.12739171     0.07300
C1815       C  0.90512085  0.31796380  0.10459715    -0.14800
C1816       C  0.91438854  0.33608345  0.06520678    -0.14800
C1817       C  0.89523680  0.34906432  0.04828459     0.07300
C1818       C  0.86734646  0.34440684  0.07147569    -0.14800
H1819       H  0.83650820  0.32364772  0.12735247     0.11300
H1820       H  0.92006418  0.30805004  0.11728875     0.11300
H1821       H  0.93577654  0.33906694  0.04734006     0.11300
H1822       H  0.85218293  0.35416980  0.05907048     0.11300
C1823       C  0.73930160  0.24165952  0.34200295    -0.14800
C1824       C  0.76902779  0.24478666  0.35780999     0.07300
C1825       C  0.76866135  0.22840778  0.39662910    -0.14800
C1826       C  0.73844203  0.20596479  0.41613016    -0.14800
C1827       C  0.70831198  0.19986142  0.39724063     0.07300
C1828       C  0.70912490  0.21964615  0.36197020    -0.14800
H1829       H  0.73917987  0.25418395  0.31199352     0.11300
H1830       H  0.79131264  0.23042146  0.40920844     0.11300
H1831       H  0.73842205  0.19048711  0.44274428     0.11300
H1832       H  0.68634166  0.21487881  0.34613062     0.11300
C1833       C  0.85795639  0.39750529  0.25435857    -0.14800
C1834       C  0.83549881  0.36786658  0.27555351     0.07300
C1835       C  0.81891725  0.36928265  0.31321151    -0.14800
C1836       C  0.82798318  0.39973729  0.33275348    -0.14800
C1837       C  0.85296110  0.42916914  0.31410901     0.07300
C1838       C  0.86644028  0.42808086  0.27335695    -0.14800
H1839       H  0.87164502  0.39695331  0.22588302     0.11300
H1840       H  0.80228388  0.34685166  0.33080037     0.11300
H1841       H  0.81737889  0.40017922  0.36432659     0.11300
H1842       H  0.88586383  0.45053884  0.25864219     0.11300
C1843       C  0.92078352  0.23684832  0.37771197    -0.14800
C1844       C  0.90636070  0.25644508  0.38495106     0.07300
C1845       C  0.90227537  0.26402880  0.42867898    -0.14800
C1846       C  0.91306486  0.25283659  0.46432545    -0.14800
C1847       C  0.92766652  0.23337288  0.45705325     0.07300
C1848       C  0.93107433  0.22522186  0.41333370    -0.14800
H1849       H  0.92398573  0.23036971  0.34445762     0.11300
H1850       H  0.89120850  0.27912103  0.43534371     0.11300
H1851       H  0.90998181  0.25942290  0.49756421     0.11300
H1852       H  0.94220371  0.21020869  0.40651502     0.11300
C1853       C  0.97936713  0.37931452  0.21870416    -0.14800
C1854       C  0.96840435  0.37116080  0.26268323     0.07300
C1855       C  0.99134337  0.38505449  0.29699673    -0.14800
C1856       C  0.02506114  0.40230820  0.28730385    -0.14800
C1857       C  0.03605111  0.40543949  0.24327339     0.07300
C1858       C  0.01308684  0.39633068  0.20900598    -0.14800
H1859       H  0.96192745  0.36948096  0.19156770     0.11300
H1860       H  0.98355069  0.37949530  0.33106054     0.11300
H1861       H  0.04250177  0.40997041  0.31444234     0.11300
H1862       H  0.02090603  0.39887320  0.17493274     0.11300
C1863       C  0.81806477  0.17954971  0.15560594    -0.14800
C1864       C  0.83500305  0.18824117  0.19610487     0.07300
C1865       C  0.85383339  0.17325465  0.20739626    -0.14800
C1866       C  0.85518644  0.14989231  0.17960474    -0.14800
C1867       C  0.83778066  0.14075805  0.13949300     0.07300
C1868       C  0.81941877  0.15617741  0.12779647    -0.14800
H1869       H  0.80410282  0.19109425  0.14512030     0.11300
H1870       H  0.86782612  0.17973368  0.23791147     0.11300
H1871       H  0.86911282  0.13831879  0.19014680     0.11300
H1872       H  0.80541121  0.14966843  0.09729860     0.11300
loop_ 
_geom_bond_atom_site_label_1 
_geom_bond_atom_site_label_2 
_geom_bond_distance 
_geom_bond_site_symmetry_2 
_ccdc_geom_bond_type 
O1          Cr19   2.039       .  S
O1            C9   1.275       .  A
O2          Cr19   1.952       .  S
O2            C3   1.257       .  A
C3            O4   1.275       .  A
C3         C1844   1.481       .  S
O4          Cr20   2.033       .  S
O5          Cr20   1.956       .  S
O5            C6   1.252       .  A
C6            O7   1.276       .  A
C6         C1864   1.500       .  S
O7          Cr21   2.064       .  S
O8          Cr21   1.968       .  S
O8            C9   1.266       .  A
C9         C1824   1.474       .  S
O10         Cr19   1.954       .  S
O10          C18   1.250       .  A
O11         Cr19   2.030       .  S
O11          C12   1.267       .  A
C12          O13   1.247       .  A
C12        C1854   1.473       .  S
O13         Cr20   1.940       .  S
O14         Cr20   2.028       .  S
O14          C15   1.272       .  A
C15          O16   1.256       .  A
C15        C1814   1.473       .  S
O16         Cr21   1.939       .  S
O17         Cr21   2.048       .  S
O17          C18   1.271       .  A
C18        C1834   1.468       .  S
Cr19         O22   1.762       .  S
Cr20         O22   1.758       .  S
Cr21         O22   1.770       .  S
O23         Cr41   2.037       .  S
O23          C31   1.274       .  A
O24         Cr41   1.950       .  S
O24          C25   1.256       .  A
C25          O26   1.275       .  A
C25        C1847   1.483       .  S
O26         Cr42   2.037       .  S
O27         Cr42   1.952       .  S
O27          C28   1.253       .  A
C28          O29   1.280       .  A
C28        C1794   1.501       .  S
O29         Cr43   2.072       .  S
O30         Cr43   1.966       .  S
O30          C31   1.265       .  A
C31        C1774   1.473       .  S
O32         Cr41   1.945   1_455  S
O32          C40   1.249       .  A
O33         Cr41   2.034   1_455  S
O33          C34   1.269       .  A
C34          O35   1.246   1_455  A
C34        C1804   1.474       .  S
O35         Cr42   1.939       .  S
O36         Cr42   2.022       .  S
O36          C37   1.270       .  A
C37          O38   1.256       .  A
C37        C1764   1.470       .  S
O38         Cr43   1.942       .  S
O39         Cr43   2.059       .  S
O39          C40   1.274   1_655  A
C40        C1784   1.472       .  S
Cr41         O44   1.758       .  S
Cr42         O44   1.755       .  S
Cr43         O44   1.767       .  S
O45         Cr63   2.041       .  S
O45          C53   1.275       .  A
O46         Cr63   1.948       .  S
O46          C47   1.256       .  A
C47          O48   1.275       .  A
C47        C1744   1.478       .  S
O48         Cr64   2.032       .  S
O49         Cr64   1.959       .  S
O49          C50   1.255       .  A
C50          O51   1.279       .  A
C50        C1754   1.501       .  S
O51         Cr65   2.067       .  S
O52         Cr65   1.968       .  S
O52          C53   1.266       .  A
C53        C1714   1.476       .  S
O54         Cr63   1.949       .  S
O54          C62   1.249       .  A
O55         Cr63   2.034       .  S
O55          C56   1.268       .  A
C56          O57   1.246       .  A
C56        C1734   1.475       .  S
O57         Cr64   1.939       .  S
O58         Cr64   2.020       .  S
O58          C59   1.269   1_556  A
C59          O60   1.257   1_554  A
C59        C1817   1.466       .  S
O60         Cr65   1.946       .  S
O61         Cr65   2.056       .  S
O61          C62   1.273       .  A
C62        C1724   1.470       .  S
Cr63         O66   1.762       .  S
Cr64         O66   1.757       .  S
Cr65         O66   1.767       .  S
O67         Cr85   2.036       .  S
O67          C75   1.273       .  A
O68         Cr85   1.951       .  S
O68          C69   1.256       .  A
C69          O70   1.273       .  A
C69        C1747   1.478       .  S
O70         Cr86   2.031       .  S
O71         Cr86   1.955       .  S
O71          C72   1.254       .  A
C72          O73   1.278       .  A
C72        C1704   1.495       .  S
O73         Cr87   2.061       .  S
O74         Cr87   1.970       .  S
O74          C75   1.264       .  A
C75        C1684   1.475       .  S
O76         Cr85   1.951       .  S
O76          C84   1.251       .  A
O77         Cr85   2.031       .  S
O77          C78   1.268       .  A
C78          O79   1.248       .  A
C78        C1807   1.472       .  S
O79         Cr86   1.941       .  S
O80         Cr86   2.022       .  S
O80          C81   1.269       .  A
C81          O82   1.257       .  A
C81        C1674   1.469       .  S
O82         Cr87   1.949       .  S
O83         Cr87   2.055       .  S
O83          C84   1.274       .  A
C84        C1694   1.473       .  S
Cr85         O88   1.761       .  S
Cr86         O88   1.761       .  S
Cr87         O88   1.766       .  S
O89        Cr107   2.044   1_554  S
O89          C97   1.275   1_554  A
O90        Cr107   1.952   1_554  S
O90          C91   1.257       .  A
C91          O92   1.275   1_554  A
C91        C1654   1.483       .  S
O92        Cr108   2.037       .  S
O93        Cr108   1.957       .  S
O93          C94   1.254       .  A
C94          O95   1.278       .  A
C94        C1664   1.497       .  S
O95        Cr109   2.063       .  S
O96        Cr109   1.963       .  S
O96          C97   1.263       .  A
C97        C1637   1.477   1_556  S
O98        Cr107   1.951   1_655  S
O98         C106   1.250       .  A
O99        Cr107   2.032   1_655  S
O99         C100   1.268       .  A
C100        O101   1.247   1_655  A
C100       C1737   1.473       .  S
O101       Cr108   1.945       .  S
O102       Cr108   2.025       .  S
O102        C103   1.270       .  A
C103        O104   1.255       .  A
C103       C1767   1.467       .  S
O104       Cr109   1.938       .  S
O105       Cr109   2.055       .  S
O105        C106   1.274   1_455  A
C106       C1644   1.470       .  S
Cr107       O110   1.759       .  S
Cr108       O110   1.757       .  S
Cr109       O110   1.766       .  S
O111       Cr129   2.033       .  S
O111        C119   1.273       .  A
O112       Cr129   1.951       .  S
O112        C113   1.256       .  A
C113        O114   1.274       .  A
C113       C1657   1.479       .  S
O114       Cr130   2.035       .  S
O115       Cr130   1.953       .  S
O115        C116   1.253       .  A
C116        O117   1.280       .  A
C116       C1624   1.498       .  S
O117       Cr131   2.068       .  S
O118       Cr131   1.965       .  S
O118        C119   1.264       .  A
C119       C1604   1.469       .  S
O120       Cr129   1.947       .  S
O120        C128   1.249       .  A
O121       Cr129   2.031       .  S
O121        C122   1.268       .  A
C122        O123   1.246       .  A
C122       C1857   1.472       .  S
O123       Cr130   1.937       .  S
O124       Cr130   2.025       .  S
O124        C125   1.270       .  A
C125        O126   1.256       .  A
C125       C1677   1.475       .  S
O126       Cr131   1.946       .  S
O127       Cr131   2.058       .  S
O127        C128   1.274       .  A
C128       C1617   1.472       .  S
Cr129       O132   1.760       .  S
Cr130       O132   1.756       .  S
Cr131       O132   1.766       .  S
O133       Cr151   1.966       .  S
O133        C141   1.264       .  A
O134       Cr151   2.070       .  S
O134        C135   1.280       .  A
C135        O136   1.252       .  A
C135       C1594   1.497       .  S
O136       Cr152   1.954       .  S
O137       Cr152   2.030       .  S
O137        C138   1.273       .  A
C138        O139   1.254       .  A
C138       C1584   1.476       .  S
O139       Cr153   1.947       .  S
O140       Cr153   2.041       .  S
O140        C141   1.275       .  A
C141       C1564   1.477       .  S
O142       Cr151   2.058       .  S
O142        C150   1.274       .  A
O143       Cr151   1.945       .  S
O143        C144   1.257       .  A
C144        O145   1.270       .  A
C144       C1554   1.473       .  S
O145       Cr152   2.028       .  S
O146       Cr152   1.935       .  S
O146        C147   1.247       .  A
C147        O148   1.271       .  A
C147       C1574   1.476       .  S
O148       Cr153   2.039       .  S
O149       Cr153   1.947       .  S
O149        C150   1.250       .  A
C150       C1687   1.474       .  S
Cr151       O154   1.765       .  S
Cr152       O154   1.759       .  S
Cr153       O154   1.759       .  S
O155       Cr173   1.964       .  S
O155        C163   1.264       .  A
O156       Cr173   2.066       .  S
O156        C157   1.279       .  A
C157        O158   1.255       .  A
C157       C1534   1.499       .  S
O158       Cr174   1.957       .  S
O159       Cr174   2.030       .  S
O159        C160   1.274       .  A
C160        O161   1.255       .  A
C160       C1587   1.474       .  S
O161       Cr175   1.944       .  S
O162       Cr175   2.042       .  S
O162        C163   1.275       .  A
C163       C1514   1.476       .  S
O164       Cr173   2.056       .  S
O164        C172   1.273   1_455  A
O165       Cr173   1.942       .  S
O165        C166   1.256       .  A
C166        O167   1.269       .  A
C166       C1504   1.471       .  S
O167       Cr174   2.022       .  S
O168       Cr174   1.938       .  S
O168        C169   1.247   1_455  A
C169        O170   1.269       .  A
C169       C1544   1.472       .  S
O170       Cr175   2.035   1_655  S
O171       Cr175   1.950   1_655  S
O171        C172   1.248       .  A
C172       C1524   1.470       .  S
Cr173       O176   1.764       .  S
Cr174       O176   1.758       .  S
Cr175       O176   1.760       .  S
O177       Cr195   1.970       .  S
O177        C185   1.264       .  A
O178       Cr195   2.067       .  S
O178        C179   1.280       .  A
C179        O180   1.254       .  A
C179       C1484   1.496       .  S
O180       Cr196   1.957       .  S
O181       Cr196   2.029       .  S
O181        C182   1.273       .  A
C182        O183   1.255       .  A
C182       C1494   1.474       .  S
O183       Cr197   1.946       .  S
O184       Cr197   2.038       .  S
O184        C185   1.274       .  A
C185       C1474   1.475       .  S
O186       Cr195   2.057       .  S
O186        C194   1.275       .  A
O187       Cr195   1.951       .  S
O187        C188   1.257       .  A
C188        O189   1.268       .  A
C188       C1467   1.470       .  S
O189       Cr196   2.017       .  S
O190       Cr196   1.942       .  S
O190        C191   1.247       .  A
C191        O192   1.270       .  A
C191       C1577   1.474       .  S
O192       Cr197   2.039       .  S
O193       Cr197   1.948       .  S
O193        C194   1.251       .  A
C194       C1717   1.472       .  S
Cr195       O198   1.765       .  S
Cr196       O198   1.756       .  S
Cr197       O198   1.758       .  S
O199       Cr217   1.965       .  S
O199        C207   1.263       .  A
O200       Cr217   2.061       .  S
O200        C201   1.278       .  A
C201        O202   1.256       .  A
C201       C1444   1.500       .  S
O202       Cr218   1.964       .  S
O203       Cr218   2.021       .  S
O203        C204   1.272   1_554  A
C204        O205   1.256       .  A
C204       C1497   1.472       .  S
O205       Cr219   1.950   1_556  S
O206       Cr219   2.040   1_556  S
O206        C207   1.274   1_556  A
C207       C1424   1.473   1_554  S
O208       Cr217   2.059       .  S
O208        C216   1.274   1_655  A
O209       Cr217   1.948       .  S
O209        C210   1.258       .  A
C210        O211   1.267       .  A
C210       C1507   1.461       .  S
O211       Cr218   2.013       .  S
O212       Cr218   1.944       .  S
O212        C213   1.248   1_655  A
C213        O214   1.267       .  A
C213       C1454   1.472       .  S
O214       Cr219   2.027   1_455  S
O215       Cr219   1.950   1_455  S
O215        C216   1.248       .  A
C216       C1434   1.474       .  S
Cr217       O220   1.765       .  S
Cr218       O220   1.760       .  S
Cr219       O220   1.763       .  S
O221       Cr239   1.967       .  S
O221        C229   1.265       .  A
O222       Cr239   2.063       .  S
O222        C223   1.278       .  A
C223        O224   1.256       .  A
C223       C1757   1.501       .  S
O224       Cr240   1.964       .  S
O225       Cr240   2.035       .  S
O225        C226   1.275       .  A
C226        O227   1.256       .  A
C226       C1414   1.480       .  S
O227       Cr241   1.950       .  S
O228       Cr241   2.039       .  S
O228        C229   1.275       .  A
C229       C1614   1.475       .  S
O230       Cr239   2.054       .  S
O230        C238   1.272       .  A
O231       Cr239   1.947       .  S
O231        C232   1.257       .  A
C232        O233   1.270       .  A
C232       C1557   1.474   1_554  S
O233       Cr240   2.024       .  S
O234       Cr240   1.939       .  S
O234        C235   1.247       .  A
C235        O236   1.267       .  A
C235       C1457   1.473       .  S
O236       Cr241   2.030       .  S
O237       Cr241   1.947       .  S
O237        C238   1.248       .  A
C238       C1404   1.470       .  S
Cr239       O242   1.768       .  S
Cr240       O242   1.760       .  S
Cr241       O242   1.764       .  S
O243       Cr261   1.962       .  S
O243        C251   1.263       .  A
O244       Cr261   2.063       .  S
O244        C245   1.279       .  A
C245        O246   1.254       .  A
C245       C1707   1.495       .  S
O246       Cr262   1.955       .  S
O247       Cr262   2.039       .  S
O247        C248   1.275       .  A
C248        O249   1.256       .  A
C248       C1417   1.483       .  S
O249       Cr263   1.949       .  S
O250       Cr263   2.038       .  S
O250        C251   1.274       .  A
C251       C1837   1.471       .  S
O252       Cr261   2.058       .  S
O252        C260   1.274       .  A
O253       Cr261   1.945       .  S
O253        C254   1.256       .  A
C254        O255   1.270       .  A
C254       C1464   1.471       .  S
O255       Cr262   2.026       .  S
O256       Cr262   1.937       .  S
O256        C257   1.246       .  A
C257        O258   1.269       .  A
C257       C1547   1.473       .  S
O258       Cr263   2.033       .  S
O259       Cr263   1.949       .  S
O259        C260   1.249       .  A
C260       C1394   1.473       .  S
Cr261       O264   1.765       .  S
Cr262       O264   1.757       .  S
Cr263       O264   1.759       .  S
O265       Cr283   2.038       .  S
O265        C273   1.276       .  A
O266       Cr283   1.955       .  S
O266        C267   1.256       .  A
C267        O268   1.270       .  A
C267       C1374   1.478       .  S
O268       Cr284   2.024       .  S
O269       Cr284   1.954       .  S
O269        C270   1.254       .  A
C270        O271   1.281       .  A
C270       C1447   1.501       .  S
O271       Cr285   2.074       .  S
O272       Cr285   1.970       .  S
O272        C273   1.266       .  A
C273       C1397   1.478       .  S
O274       Cr283   1.946       .  S
O274        C282   1.249       .  A
O275       Cr283   2.032       .  S
O275        C276   1.270       .  A
C276        O277   1.248       .  A
C276       C1384   1.472       .  S
O277       Cr284   1.933       .  S
O278       Cr284   2.019       .  S
O278        C279   1.267       .  A
C279        O280   1.257       .  A
C279       C1354   1.459       .  S
O280       Cr285   1.964       .  S
O281       Cr285   2.054       .  S
O281        C282   1.271       .  A
C282       C1364   1.477       .  S
Cr283       O286   1.760       .  S
Cr284       O286   1.761       .  S
Cr285       O286   1.771       .  S
O287       Cr305   2.034       .  S
O287        C295   1.275       .  A
O288       Cr305   1.957       .  S
O288        C289   1.256       .  A
C289        O290   1.270       .  A
C289       C1377   1.480       .  S
O290       Cr306   2.023       .  S
O291       Cr306   1.955       .  S
O291        C292   1.254       .  A
C292        O293   1.279       .  A
C292       C1487   1.497       .  S
O293       Cr307   2.067       .  S
O294       Cr307   1.969       .  S
O294        C295   1.267       .  A
C295       C1527   1.476       .  S
O296       Cr305   1.955       .  S
O296        C304   1.249       .  A
O297       Cr305   2.030       .  S
O297        C298   1.269       .  A
C298        O299   1.248       .  A
C298       C1347   1.470       .  S
O299       Cr306   1.936       .  S
O300       Cr306   2.019       .  S
O300        C301   1.267       .  A
C301        O302   1.257       .  A
C301       C1324   1.456       .  S
O302       Cr307   1.963       .  S
O303       Cr307   2.044       .  S
O303        C304   1.269       .  A
C304       C1334   1.467       .  S
Cr305       O308   1.760       .  S
Cr306       O308   1.759       .  S
Cr307       O308   1.769       .  S
O309       Cr327   2.029   1_554  S
O309        C317   1.273   1_554  A
O310       Cr327   1.951   1_554  S
O310        C311   1.254       .  A
C311        O312   1.270   1_554  A
C311       C1307   1.474       .  S
O312       Cr328   2.025       .  S
O313       Cr328   1.952       .  S
O313        C314   1.256       .  A
C314        O315   1.283       .  A
C314       C1314   1.500       .  S
O315       Cr329   2.077       .  S
O316       Cr329   1.971       .  S
O316        C317   1.266       .  A
C317       C1284   1.476   1_556  S
O318       Cr327   1.946       .  S
O318        C326   1.250       .  A
O319       Cr327   2.033       .  S
O319        C320   1.270       .  A
C320        O321   1.249       .  A
C320       C1294   1.467       .  S
O321       Cr328   1.935       .  S
O322       Cr328   2.015       .  S
O322        C323   1.264       .  A
C323        O324   1.256       .  A
C323       C1327   1.457       .  S
O324       Cr329   1.965       .  S
O325       Cr329   2.052       .  S
O325        C326   1.273       .  A
C326       C1427   1.474       .  S
Cr327       O330   1.759       .  S
Cr328       O330   1.759       .  S
Cr329       O330   1.763       .  S
O331       Cr349   2.038       .  S
O331        C339   1.275       .  A
O332       Cr349   1.939       .  S
O332        C333   1.254       .  A
C333        O334   1.274       .  A
C333       C1304   1.472       .  S
O334       Cr350   2.033       .  S
O335       Cr350   1.956       .  S
O335        C336   1.254       .  A
C336        O337   1.278       .  A
C336       C1274   1.498       .  S
O337       Cr351   2.064       .  S
O338       Cr351   1.962       .  S
O338        C339   1.264       .  A
C339       C1264   1.472       .  S
O340       Cr349   1.948       .  S
O340        C348   1.249       .  A
O341       Cr349   2.030       .  S
O341        C342   1.268       .  A
C342        O343   1.246       .  A
C342       C1387   1.469       .  S
O343       Cr350   1.939       .  S
O344       Cr350   2.021       .  S
O344        C345   1.270       .  A
C345        O346   1.256       .  A
C345       C1244   1.469       .  S
O346       Cr351   1.939       .  S
O347       Cr351   2.054       .  S
O347        C348   1.272       .  A
C348       C1254   1.468       .  S
Cr349       O352   1.758       .  S
Cr350       O352   1.756       .  S
Cr351       O352   1.764       .  S
O353       Cr371   2.035       .  S
O353        C361   1.273       .  A
O354       Cr371   1.941       .  S
O354        C355   1.254       .  A
C355        O356   1.272       .  A
C355       C1234   1.473       .  S
O356       Cr372   2.030       .  S
O357       Cr372   1.953       .  S
O357        C358   1.253       .  A
C358        O359   1.280       .  A
C358       C1224   1.499       .  S
O359       Cr373   2.071       .  S
O360       Cr373   1.968       .  S
O360        C361   1.264       .  A
C361       C1204   1.474       .  S
O362       Cr371   1.942       .  S
O362        C370   1.249       .  A
O363       Cr371   2.031       .  S
O363        C364   1.269       .  A
C364        O365   1.246       .  A
C364       C1344   1.470       .  S
O365       Cr372   1.936       .  S
O366       Cr372   2.019       .  S
O366        C367   1.268       .  A
C367        O368   1.256       .  A
C367       C1247   1.463       .  S
O368       Cr373   1.942       .  S
O369       Cr373   2.065       .  S
O369        C370   1.276       .  A
C370       C1214   1.478       .  S
Cr371       O374   1.757       .  S
Cr372       O374   1.758       .  S
Cr373       O374   1.764       .  S
O375       Cr393   2.042       .  S
O375        C383   1.277       .  A
O376       Cr393   1.948       .  S
O376        C377   1.254       .  A
C377        O378   1.271       .  A
C377       C1237   1.473       .  S
O378       Cr394   2.022       .  S
O379       Cr394   1.953       .  S
O379        C380   1.252       .  A
C380        O381   1.278       .  A
C380       C1194   1.492       .  S
O381       Cr395   2.062       .  S
O382       Cr395   1.964       .  S
O382        C383   1.265       .  A
C383       C1184   1.476       .  S
O384       Cr393   1.949       .  S
O384        C392   1.247       .  A
O385       Cr393   2.030       .  S
O385        C386   1.270       .  A
C386        O387   1.248       .  A
C386       C1297   1.470       .  S
O387       Cr394   1.931       .  S
O388       Cr394   2.025       .  S
O388        C389   1.269   1_556  A
C389        O390   1.258   1_554  A
C389       C1357   1.461       .  S
O390       Cr395   1.958       .  S
O391       Cr395   2.052       .  S
O391        C392   1.270       .  A
C392       C1477   1.473       .  S
Cr393       O396   1.756       .  S
Cr394       O396   1.759       .  S
Cr395       O396   1.767       .  S
O397       Cr415   1.970       .  S
O397        C405   1.265       .  A
O398       Cr415   2.065       .  S
O398        C399   1.278       .  A
C399        O400   1.254       .  A
C399       C1227   1.498       .  S
O400       Cr416   1.959       .  S
O401       Cr416   2.030       .  S
O401        C402   1.274       .  A
C402        O403   1.256       .  A
C402       C1167   1.477       .  S
O403       Cr417   1.947       .  S
O404       Cr417   2.039       .  S
O404        C405   1.274       .  A
C405       C1367   1.473       .  S
O406       Cr415   2.058       .  S
O406        C414   1.273       .  A
O407       Cr415   1.950       .  S
O407        C408   1.259       .  A
C408        O409   1.270       .  A
C408       C1147   1.470       .  S
O409       Cr416   2.018       .  S
O410       Cr416   1.943       .  S
O410        C411   1.247       .  A
C411        O412   1.267       .  A
C411       C1174   1.472       .  S
O412       Cr417   2.026       .  S
O413       Cr417   1.948       .  S
O413        C414   1.248       .  A
C414       C1154   1.471       .  S
Cr415       O418   1.767       .  S
Cr416       O418   1.757       .  S
Cr417       O418   1.758       .  S
O419       Cr437   1.961       .  S
O419        C427   1.264       .  A
O420       Cr437   2.058       .  S
O420        C421   1.277       .  A
C421        O422   1.253       .  A
C421       C1197   1.491       .  S
O422       Cr438   1.952       .  S
O423       Cr438   2.029       .  S
O423        C424   1.273       .  A
C424        O425   1.256       .  A
C424       C1164   1.478       .  S
O425       Cr439   1.952       .  S
O426       Cr439   2.035       .  S
O426        C427   1.274       .  A
C427       C1257   1.471       .  S
O428       Cr437   2.047       .  S
O428        C436   1.271       .  A
O429       Cr437   1.939       .  S
O429        C430   1.255       .  A
C430        O431   1.269       .  A
C430       C1124   1.469   1_554  S
O431       Cr438   2.023       .  S
O432       Cr438   1.934       .  S
O432        C433   1.246       .  A
C433        O434   1.268       .  A
C433       C1134   1.469       .  S
O434       Cr439   2.030       .  S
O435       Cr439   1.948       .  S
O435        C436   1.250       .  A
C436       C1607   1.466       .  S
Cr437       O440   1.765       .  S
Cr438       O440   1.756       .  S
Cr439       O440   1.757       .  S
O441       Cr459   1.971       .  S
O441        C449   1.266       .  A
O442       Cr459   2.064       .  S
O442        C443   1.278       .  A
C443        O444   1.253       .  A
C443       C1627   1.498       .  S
O444       Cr460   1.955       .  S
O445       Cr460   2.034       .  S
O445        C446   1.274       .  A
C446        O447   1.256       .  A
C446       C1114   1.479       .  S
O447       Cr461   1.951       .  S
O448       Cr461   2.031       .  S
O448        C449   1.273       .  A
C449       C1787   1.473       .  S
O450       Cr459   2.048       .  S
O450        C458   1.271       .  A
O451       Cr459   1.948       .  S
O451        C452   1.257       .  A
C452        O453   1.270       .  A
C452       C1094   1.474       .  S
O453       Cr460   2.026       .  S
O454       Cr460   1.941       .  S
O454        C455   1.247       .  A
C455        O456   1.267       .  A
C455       C1177   1.471       .  S
O456       Cr461   2.029       .  S
O457       Cr461   1.950       .  S
O457        C458   1.251       .  A
C458       C1104   1.466       .  S
Cr459       O462   1.769       .  S
Cr460       O462   1.759       .  S
Cr461       O462   1.762       .  S
O463       Cr481   1.965       .  S
O463        C471   1.263       .  A
O464       Cr481   2.062       .  S
O464        C465   1.278       .  A
C465        O466   1.255       .  A
C465       C1667   1.497       .  S
O466       Cr482   1.957       .  S
O467       Cr482   2.032       .  S
O467        C468   1.274       .  A
C468        O469   1.256       .  A
C468       C1117   1.480       .  S
O469       Cr483   1.951       .  S
O470       Cr483   2.042       .  S
O470        C471   1.275       .  A
C471       C1697   1.475       .  S
O472       Cr481   2.058       .  S
O472        C480   1.274       .  A
O473       Cr481   1.943       .  S
O473        C474   1.257       .  A
C474        O475   1.268       .  A
C474       C1127   1.464       .  S
O475       Cr482   2.018       .  S
O476       Cr482   1.943       .  S
O476        C477   1.247       .  A
C477        O478   1.269       .  A
C477       C1084   1.474       .  S
O478       Cr483   2.032       .  S
O479       Cr483   1.947       .  S
O479        C480   1.248       .  A
C480       C1207   1.472       .  S
Cr481       O484   1.766       .  S
Cr482       O484   1.759       .  S
Cr483       O484   1.759       .  S
O485       Cr503   1.973       .  S
O485        C493   1.264       .  A
O486       Cr503   2.067       .  S
O486        C487   1.281       .  A
C487        O488   1.254       .  A
C487       C1074   1.500       .  S
O488       Cr504   1.957       .  S
O489       Cr504   2.033       .  S
O489        C490   1.274   1_554  A
C490        O491   1.255       .  A
C490       C1064   1.475       .  S
O491       Cr505   1.944   1_556  S
O492       Cr505   2.033   1_556  S
O492        C493   1.272   1_556  A
C493       C1054   1.473   1_554  S
O494       Cr503   2.061       .  S
O494        C502   1.276       .  A
O495       Cr503   1.953       .  S
O495        C496   1.258       .  A
C496        O497   1.268       .  A
C496       C1097   1.473       .  S
O497       Cr504   2.018       .  S
O498       Cr504   1.939       .  S
O498        C499   1.246       .  A
C499        O500   1.268       .  A
C499       C1137   1.469       .  S
O500       Cr505   2.028       .  S
O501       Cr505   1.948       .  S
O501        C502   1.250       .  A
C502       C1634   1.474       .  S
Cr503       O506   1.762       .  S
Cr504       O506   1.760       .  S
Cr505       O506   1.761       .  S
O507       Cr525   1.965       .  S
O507        C515   1.263       .  A
O508       Cr525   2.062       .  S
O508        C509   1.278       .  A
C509        O510   1.255       .  A
C509       C1047   1.497       .  S
O510       Cr526   1.957       .  S
O511       Cr526   2.033       .  S
O511        C512   1.275       .  A
C512        O513   1.255       .  A
C512       C1067   1.476       .  S
O513       Cr527   1.945       .  S
O514       Cr527   2.039       .  S
O514        C515   1.275       .  A
C515       C1034   1.473       .  S
O516       Cr525   2.057       .  S
O516        C524   1.274       .  A
O517       Cr525   1.943       .  S
O517        C518   1.256       .  A
C518        O519   1.270       .  A
C518       C1144   1.469       .  S
O519       Cr526   2.024       .  S
O520       Cr526   1.940       .  S
O520        C521   1.247       .  A
C521        O522   1.268       .  A
C521       C1087   1.473       .  S
O522       Cr527   2.033       .  S
O523       Cr527   1.947       .  S
O523        C524   1.248       .  A
C524       C1187   1.470       .  S
Cr525       O528   1.765       .  S
Cr526       O528   1.756       .  S
Cr527       O528   1.760       .  S
O529       Cr547   1.967       .  S
O529        C537   1.265       .  A
O530       Cr547   2.060       .  S
O530        C531   1.278       .  A
C531        O532   1.253       .  A
C531       C1024   1.492       .  S
O532       Cr548   1.954       .  S
O533       Cr548   2.034       .  S
O533        C534   1.275       .  A
C534        O535   1.257       .  A
C534       C1004   1.480       .  S
O535       Cr549   1.951       .  S
O536       Cr549   2.040       .  S
O536        C537   1.275       .  A
C537        C994   1.475       .  S
O538       Cr547   2.050       .  S
O538        C546   1.272       .  A
O539       Cr547   1.943       .  S
O539        C540   1.255   1_554  A
C540        O541   1.271   1_556  A
C540        C984   1.471       .  S
O541       Cr548   2.025       .  S
O542       Cr548   1.939       .  S
O542        C543   1.246       .  A
C543        O544   1.268       .  A
C543       C1014   1.471       .  S
O544       Cr549   2.032       .  S
O545       Cr549   1.951       .  S
O545        C546   1.249       .  A
C546       C1267   1.466       .  S
Cr547       O550   1.767       .  S
Cr548       O550   1.755       .  S
Cr549       O550   1.757       .  S
O551       Cr569   1.967       .  S
O551        C559   1.264       .  A
O552       Cr569   2.060       .  S
O552        C553   1.277       .  A
C553        O554   1.256       .  A
C553        C967   1.501       .  S
O554       Cr570   1.962       .  S
O555       Cr570   2.031       .  S
O555        C556   1.275       .  A
C556        O557   1.257       .  A
C556       C1007   1.480       .  S
O557       Cr571   1.952       .  S
O558       Cr571   2.035       .  S
O558        C559   1.273       .  A
C559        C954   1.470       .  S
O560       Cr569   2.056       .  S
O560        C568   1.273       .  A
O561       Cr569   1.944       .  S
O561        C562   1.257       .  A
C562        O563   1.269       .  A
C562        C947   1.466       .  S
O563       Cr570   2.018       .  S
O564       Cr570   1.940       .  S
O564        C565   1.246       .  A
C565        O566   1.266       .  A
C565        C974   1.471       .  S
O566       Cr571   2.026       .  S
O567       Cr571   1.951       .  S
O567        C568   1.249       .  A
C568       C1827   1.473       .  S
Cr569       O572   1.766       .  S
Cr570       O572   1.760       .  S
Cr571       O572   1.764       .  S
O573       Cr591   1.966       .  S
O573        C581   1.264       .  A
O574       Cr591   2.067       .  S
O574        C575   1.279       .  A
C575        O576   1.254       .  A
C575       C1867   1.499       .  S
O576       Cr592   1.957       .  S
O577       Cr592   2.029       .  S
O577        C578   1.273   1_554  A
C578        O579   1.255       .  A
C578        C934   1.476       .  S
O579       Cr593   1.946   1_556  S
O580       Cr593   2.035   1_556  S
O580        C581   1.273   1_556  A
C581       C1647   1.473   1_554  S
O582       Cr591   2.058       .  S
O582        C590   1.274   1_545  A
O583       Cr591   1.947       .  S
O583        C584   1.257       .  A
C584        O585   1.269       .  A
C584        C924   1.470       .  S
O585       Cr592   2.020       .  S
O586       Cr592   1.941       .  S
O586        C587   1.248   1_545  A
C587        O588   1.268       .  A
C587       C1017   1.472       .  S
O588       Cr593   2.028   1_565  S
O589       Cr593   1.948   1_565  S
O589        C590   1.249       .  A
C590       C1287   1.471       .  S
Cr591       O594   1.765       .  S
Cr592       O594   1.758       .  S
Cr593       O594   1.759       .  S
O595       Cr613   1.966       .  S
O595        C603   1.265       .  A
O596       Cr613   2.066       .  S
O596        C597   1.279       .  A
C597        O598   1.254       .  A
C597       C1797   1.501       .  S
O598       Cr614   1.956       .  S
O599       Cr614   2.028       .  S
O599        C600   1.274       .  A
C600        O601   1.255       .  A
C600        C937   1.474       .  S
O601       Cr615   1.946       .  S
O602       Cr615   2.037       .  S
O602        C603   1.275       .  A
C603       C1727   1.473       .  S
O604       Cr613   2.052       .  S
O604        C612   1.272       .  A
O605       Cr613   1.944       .  S
O605        C606   1.256       .  A
C606        O607   1.269       .  A
C606        C944   1.469       .  S
O607       Cr614   2.019       .  S
O608       Cr614   1.939       .  S
O608        C609   1.246       .  A
C609        O610   1.269       .  A
C609        C914   1.476       .  S
O610       Cr615   2.038       .  S
O611       Cr615   1.949       .  S
O611        C612   1.250       .  A
C612        C907   1.467       .  S
Cr613       O616   1.767       .  S
Cr614       O616   1.757       .  S
Cr615       O616   1.761       .  S
O617       Cr635   1.966       .  S
O617        C625   1.264       .  A
O618       Cr635   2.066       .  S
O618        C619   1.280       .  A
C619        O620   1.255       .  A
C619       C1277   1.499       .  S
O620       Cr636   1.956       .  S
O621       Cr636   2.031       .  S
O621        C622   1.274       .  A
C622        O623   1.255       .  A
C622        C894   1.477       .  S
O623       Cr637   1.948       .  S
O624       Cr637   2.028       .  S
O624        C625   1.271       .  A
C625       C1337   1.470       .  S
O626       Cr635   2.055       .  S
O626        C634   1.274   1_565  A
O627       Cr635   1.944       .  S
O627        C628   1.256       .  A
C628        O629   1.269       .  A
C628        C927   1.471       .  S
O629       Cr636   2.021       .  S
O630       Cr636   1.939       .  S
O630        C631   1.247   1_565  A
C631        O632   1.267       .  A
C631        C977   1.470       .  S
O632       Cr637   2.028   1_545  S
O633       Cr637   1.945   1_545  S
O633        C634   1.250       .  A
C634       C1777   1.471       .  S
Cr635       O638   1.764       .  S
Cr636       O638   1.759       .  S
Cr637       O638   1.761       .  S
O639       Cr657   1.970       .  S
O639        C647   1.264       .  A
O640       Cr657   2.063       .  S
O640        C641   1.278       .  A
C641        O642   1.253       .  A
C641       C1317   1.498       .  S
O642       Cr658   1.958       .  S
O643       Cr658   2.029       .  S
O643        C644   1.273       .  A
C644        O645   1.255       .  A
C644        C897   1.472       .  S
O645       Cr659   1.945       .  S
O646       Cr659   2.043       .  S
O646        C647   1.275       .  A
C647       C1217   1.477       .  S
O648       Cr657   2.056       .  S
O648        C656   1.274       .  A
O649       Cr657   1.950       .  S
O649        C650   1.258       .  A
C650        O651   1.269       .  A
C650        C987   1.471       .  S
O651       Cr658   2.020       .  S
O652       Cr658   1.944       .  S
O652        C653   1.247       .  A
C653        O654   1.269       .  A
C653        C917   1.477       .  S
O654       Cr659   2.035       .  S
O655       Cr659   1.947       .  S
O655        C656   1.249       .  A
C656        C887   1.470       .  S
Cr657       O660   1.766       .  S
Cr658       O660   1.758       .  S
Cr659       O660   1.761       .  S
O661       Cr679   2.039   1_554  S
O661        C669   1.275   1_554  A
O662       Cr679   1.945   1_554  S
O662        C663   1.254       .  A
C663        O664   1.274   1_554  A
C663        C874   1.476       .  S
O664       Cr680   2.032       .  S
O665       Cr680   1.953       .  S
O665        C666   1.253       .  A
C666        O667   1.280       .  A
C666       C1597   1.498       .  S
O667       Cr681   2.070       .  S
O668       Cr681   1.968       .  S
O668        C669   1.264       .  A
C669       C1437   1.477   1_556  S
O670       Cr679   1.941   1_545  S
O670        C678   1.249       .  A
O671       Cr679   2.037   1_545  S
O671        C672   1.270       .  A
C672        O673   1.246   1_545  A
C672        C867   1.472       .  S
O673       Cr680   1.934       .  S
O674       Cr680   2.028       .  S
O674        C675   1.270       .  A
C675        O676   1.256       .  A
C675        C854   1.474       .  S
O676       Cr681   1.944       .  S
O677       Cr681   2.060       .  S
O677        C678   1.275   1_565  A
C678       C1057   1.474       .  S
Cr679       O682   1.759       .  S
Cr680       O682   1.756       .  S
Cr681       O682   1.764       .  S
O683       Cr701   2.040       .  S
O683        C691   1.275       .  A
O684       Cr701   1.943       .  S
O684        C685   1.255       .  A
C685        O686   1.274       .  A
C685        C877   1.473       .  S
O686       Cr702   2.030       .  S
O687       Cr702   1.955       .  S
O687        C688   1.253       .  A
C688        O689   1.278       .  A
C688       C1537   1.499       .  S
O689       Cr703   2.068       .  S
O690       Cr703   1.964       .  S
O690        C691   1.264       .  A
C691       C1407   1.473       .  S
O692       Cr701   1.947       .  S
O692        C700   1.249       .  A
O693       Cr701   2.036       .  S
O693        C694   1.269       .  A
C694        O695   1.246       .  A
C694        C847   1.476       .  S
O695       Cr702   1.936       .  S
O696       Cr702   2.022       .  S
O696        C697   1.270       .  A
C697        O698   1.256       .  A
C697        C834   1.467       .  S
O698       Cr703   1.937       .  S
O699       Cr703   2.059       .  S
O699        C700   1.274       .  A
C700        C997   1.473       .  S
Cr701       O704   1.759       .  S
Cr702       O704   1.757       .  S
Cr703       O704   1.765       .  S
O705       Cr723   2.038       .  S
O705        C713   1.274       .  A
O706       Cr723   1.948       .  S
O706        C707   1.256       .  A
C707        O708   1.274       .  A
C707        C824   1.477       .  S
O708       Cr724   2.032       .  S
O709       Cr724   1.957       .  S
O709        C710   1.254       .  A
C710        O711   1.278       .  A
C710        C964   1.501       .  S
O711       Cr725   2.064       .  S
O712       Cr725   1.963       .  S
O712        C713   1.264       .  A
C713        C884   1.472       .  S
O714       Cr723   1.955       .  S
O714        C722   1.251       .  A
O715       Cr723   2.031       .  S
O715        C716   1.268       .  A
C716        O717   1.247       .  A
C716        C814   1.473       .  S
O717       Cr724   1.942       .  S
O718       Cr724   2.019       .  S
O718        C719   1.269       .  A
C719        O720   1.257       .  A
C719        C837   1.464       .  S
O720       Cr725   1.941       .  S
O721       Cr725   2.055       .  S
O721        C722   1.273       .  A
C722       C1567   1.472       .  S
Cr723       O726   1.762       .  S
Cr724       O726   1.760       .  S
Cr725       O726   1.768       .  S
O727       Cr745   2.033       .  S
O727        C735   1.274       .  A
O728       Cr745   1.958       .  S
O728        C729   1.255       .  A
C729        O730   1.271       .  A
C729        C827   1.481       .  S
O730       Cr746   2.025       .  S
O731       Cr746   1.953       .  S
O731        C732   1.254       .  A
C732        O733   1.279       .  A
C732       C1027   1.494       .  S
O733       Cr747   2.066       .  S
O734       Cr747   1.963       .  S
O734        C735   1.265       .  A
C735        C904   1.472       .  S
O736       Cr745   1.951       .  S
O736        C744   1.249       .  A
O737       Cr745   2.031       .  S
O737        C738   1.270       .  A
C738        O739   1.249       .  A
C738        C864   1.472       .  S
O739       Cr746   1.938       .  S
O740       Cr746   2.019       .  S
O740        C741   1.266   1_556  A
C741        O742   1.256   1_554  A
C741        C804   1.454       .  S
O742       Cr747   1.958       .  S
O743       Cr747   2.050       .  S
O743        C744   1.271       .  A
C744       C1037   1.471       .  S
Cr745       O748   1.758       .  S
Cr746       O748   1.758       .  S
Cr747       O748   1.767       .  S
O749       Cr767   2.036       .  S
O749        C757   1.274       .  A
O750       Cr767   1.950       .  S
O750        C751   1.256       .  A
C751        O752   1.272       .  A
C751        C794   1.475       .  S
O752       Cr768   2.029       .  S
O753       Cr768   1.956       .  S
O753        C754   1.253       .  A
C754        O755   1.278       .  A
C754       C1044   1.497       .  S
O755       Cr769   2.063       .  S
O756       Cr769   1.962       .  S
O756        C757   1.264       .  A
C757       C1107   1.471       .  S
O758       Cr767   1.951   1_565  S
O758        C766   1.249       .  A
O759       Cr767   2.031   1_565  S
O759        C760   1.269       .  A
C760        O761   1.247   1_565  A
C760        C817   1.472       .  S
O761       Cr768   1.935       .  S
O762       Cr768   2.026       .  S
O762        C763   1.270       .  A
C763        O764   1.257       .  A
C763        C857   1.472       .  S
O764       Cr769   1.945       .  S
O765       Cr769   2.052       .  S
O765        C766   1.272   1_545  A
C766       C1517   1.471       .  S
Cr767       O770   1.762       .  S
Cr768       O770   1.760       .  S
Cr769       O770   1.767       .  S
O771       Cr789   2.033       .  S
O771        C779   1.274       .  A
O772       Cr789   1.954       .  S
O772        C773   1.255       .  A
C773        O774   1.271       .  A
C773        C797   1.478       .  S
O774       Cr790   2.025       .  S
O775       Cr790   1.955       .  S
O775        C776   1.256       .  A
C776        O777   1.282       .  A
C776       C1077   1.501       .  S
O777       Cr791   2.075       .  S
O778       Cr791   1.968       .  S
O778        C779   1.265       .  A
C779       C1157   1.475       .  S
O780       Cr789   1.944       .  S
O780        C788   1.249       .  A
O781       Cr789   2.033       .  S
O781        C782   1.270       .  A
C782        O783   1.249       .  A
C782        C844   1.472       .  S
O783       Cr790   1.942       .  S
O784       Cr790   2.013       .  S
O784        C785   1.265       .  A
C785        O786   1.255       .  A
C785        C807   1.454       .  S
O786       Cr791   1.961       .  S
O787       Cr791   2.051       .  S
O787        C788   1.271       .  A
C788        C957   1.472       .  S
Cr789       O792   1.757       .  S
Cr790       O792   1.758       .  S
Cr791       O792   1.767       .  S
C793        C794   1.408       .  A
C793        C798   1.396       .  A
C793        H799   1.083       .  S
C794        C795   1.400       .  A
C795        C796   1.398       .  A
C795        H800   1.085       .  S
C796        C797   1.410       .  A
C796        H801   1.082       .  S
C797        C798   1.402       .  A
C798        H802   1.084       .  S
C803        C804   1.402       .  A
C803        C808   1.393       .  A
C803        H809   1.085       .  S
C804        C805   1.399       .  A
C805        C806   1.395       .  A
C805        H810   1.082       .  S
C806        C807   1.404       .  A
C806        H811   1.085       .  S
C807        C808   1.397       .  A
C808        H812   1.083       .  S
C813        C814   1.412       .  A
C813        C818   1.396       .  A
C813        H819   1.084       .  S
C814        C815   1.397       .  A
C815        C816   1.395       .  A
C815        H820   1.083       .  S
C816        C817   1.412       .  A
C816        H821   1.084       .  S
C817        C818   1.397       .  A
C818        H822   1.083       .  S
C823        C824   1.408       .  A
C823        C828   1.396       .  A
C823        H829   1.083       .  S
C824        C825   1.401   1_565  A
C825        C826   1.400       .  A
C825        H830   1.084       .  S
C826        C827   1.411       .  A
C826        H831   1.083       .  S
C827        C828   1.402   1_545  A
C828        H832   1.084       .  S
C833        C834   1.405       .  A
C833        C838   1.401       .  A
C833        H839   1.083       .  S
C834        C835   1.403       .  A
C835        C836   1.383       .  A
C835        H840   1.084       .  S
C836        C837   1.401       .  A
C836        H841   1.084       .  S
C837        C838   1.405       .  A
C838        H842   1.083       .  S
C843        C844   1.396       .  A
C843        C848   1.395   1_545  A
C843        H849   1.083       .  S
C844        C845   1.412       .  A
C845        C846   1.397   1_545  A
C845        H850   1.083       .  S
C846        C847   1.397       .  A
C846        H851   1.083       .  S
C847        C848   1.414       .  A
C848        H852   1.083       .  S
C853        C854   1.403       .  A
C853        C858   1.384   1_565  A
C853        H859   1.084       .  S
C854        C855   1.407       .  A
C855        C856   1.407   1_565  A
C855        H860   1.083       .  S
C856        C857   1.407       .  A
C856        H861   1.083       .  S
C857        C858   1.401       .  A
C858        H862   1.084       .  S
C863        C864   1.412       .  A
C863        C868   1.395       .  A
C863        H869   1.082       .  S
C864        C865   1.396       .  A
C865        C866   1.395       .  A
C865        H870   1.083       .  S
C866        C867   1.413       .  A
C866        H871   1.083       .  S
C867        C868   1.396       .  A
C868        H872   1.084       .  S
C873        C874   1.399       .  A
C873        C878   1.394       .  A
C873        H879   1.085       .  S
C874        C875   1.411       .  A
C875        C876   1.397       .  A
C875        H880   1.082       .  S
C876        C877   1.399       .  A
C876        H881   1.085       .  S
C877        C878   1.409       .  A
C878        H882   1.083       .  S
C883        C884   1.400       .  A
C883        C888   1.401       .  A
C883        H889   1.083       .  S
C884        C885   1.404       .  A
C885        C886   1.400       .  A
C885        H890   1.084       .  S
C886        C887   1.402       .  A
C886        H891   1.083       .  S
C887        C888   1.408       .  A
C888        H892   1.084       .  S
C893        C894   1.410       .  A
C893        C898   1.396       .  A
C893        H899   1.082       .  S
C894        C895   1.401       .  A
C895        C896   1.396       .  A
C895        H900   1.084       .  S
C896        C897   1.408       .  A
C896        H901   1.083       .  S
C897        C898   1.399       .  A
C898        H902   1.085       .  S
C903        C904   1.401       .  A
C903        C908   1.401       .  A
C903        H909   1.083       .  S
C904        C905   1.404       .  A
C905        C906   1.399       .  A
C905        H910   1.084       .  S
C906        C907   1.403       .  A
C906        H911   1.084       .  S
C907        C908   1.407       .  A
C908        H912   1.084       .  S
C913        C914   1.398       .  A
C913        C918   1.398   1_545  A
C913        H919   1.083       .  S
C914        C915   1.413       .  A
C915        C916   1.396   1_545  A
C915        H920   1.084       .  S
C916        C917   1.397       .  A
C916        H921   1.082       .  S
C917        C918   1.413       .  A
C918        H922   1.084       .  S
C923        C924   1.406       .  A
C923        C928   1.404   1_545  A
C923        H929   1.083       .  S
C924        C925   1.401       .  A
C925        C926   1.384   1_545  A
C925        H930   1.084       .  S
C926        C927   1.403       .  A
C926        H931   1.084       .  S
C927        C928   1.406       .  A
C928        H932   1.083       .  S
C933        C934   1.401       .  A
C933        C938   1.397       .  A
C933        H939   1.085       .  S
C934        C935   1.409       .  A
C935        C936   1.395       .  A
C935        H940   1.083       .  S
C936        C937   1.399       .  A
C936        H941   1.085       .  S
C937        C938   1.409       .  A
C938        H942   1.083       .  S
C943        C944   1.403       .  A
C943        C948   1.383       .  A
C943        H949   1.083       .  S
C944        C945   1.406       .  A
C945        C946   1.402       .  A
C945        H950   1.083       .  S
C946        C947   1.405       .  A
C946        H951   1.083       .  S
C947        C948   1.401       .  A
C948        H952   1.084       .  S
C953        C954   1.398       .  A
C953        C958   1.398       .  A
C953        H959   1.083       .  S
C954        C955   1.405       .  A
C955        C956   1.403       .  A
C955        H960   1.084       .  S
C956        C957   1.403       .  A
C956        H961   1.083       .  S
C957        C958   1.408       .  A
C958        H962   1.084       .  S
C963        C964   1.413   1_545  A
C963        C968   1.406       .  A
C963        H969   1.083       .  S
C964        C965   1.405       .  A
C965        C966   1.408       .  A
C965        H970   1.082       .  S
C966        C967   1.414   1_565  A
C966        H971   1.083       .  S
C967        C968   1.405       .  A
C968        H972   1.082       .  S
C973        C974   1.412       .  A
C973        C978   1.395       .  A
C973        H979   1.084       .  S
C974        C975   1.396       .  A
C975        C976   1.395       .  A
C975        H980   1.084       .  S
C976        C977   1.412       .  A
C976        H981   1.084       .  S
C977        C978   1.396       .  A
C978        H982   1.083       .  S
C983        C984   1.404       .  A
C983        C988   1.386       .  A
C983        H989   1.084       .  S
C984        C985   1.405       .  A
C985        C986   1.403       .  A
C985        H990   1.083       .  S
C986        C987   1.406       .  A
C986        H991   1.083       .  S
C987        C988   1.402       .  A
C988        H992   1.084       .  S
C993        C994   1.405       .  A
C993        C998   1.402       .  A
C993        H999   1.084       .  S
C994        C995   1.400       .  A
C995        C996   1.401       .  A
C995       H1000   1.083       .  S
C996        C997   1.409       .  A
C996       H1001   1.084       .  S
C997        C998   1.403       .  A
C998       H1002   1.083       .  S
C1003      C1004   1.409       .  A
C1003      C1008   1.397       .  A
C1003      H1009   1.083       .  S
C1004      C1005   1.401   1_565  A
C1005      C1006   1.399       .  A
C1005      H1010   1.084       .  S
C1006      C1007   1.410       .  A
C1006      H1011   1.083       .  S
C1007      C1008   1.401   1_545  A
C1008      H1012   1.084       .  S
C1013      C1014   1.412       .  A
C1013      C1018   1.395       .  A
C1013      H1019   1.084       .  S
C1014      C1015   1.397       .  A
C1015      C1016   1.395       .  A
C1015      H1020   1.083       .  S
C1016      C1017   1.412       .  A
C1016      H1021   1.084       .  S
C1017      C1018   1.397       .  A
C1018      H1022   1.083       .  S
C1023      C1024   1.412   1_545  A
C1023      C1028   1.405       .  A
C1023      H1029   1.084       .  S
C1024      C1025   1.403   1_554  A
C1025      C1026   1.403       .  A
C1025      H1030   1.082       .  S
C1026      C1027   1.412   1_565  A
C1026      H1031   1.084       .  S
C1027      C1028   1.405   1_556  A
C1028      H1032   1.082       .  S
C1033      C1034   1.405       .  A
C1033      C1038   1.402       .  A
C1033      H1039   1.084       .  S
C1034      C1035   1.401       .  A
C1035      C1036   1.401       .  A
C1035      H1040   1.083       .  S
C1036      C1037   1.407       .  A
C1036      H1041   1.084       .  S
C1037      C1038   1.403       .  A
C1038      H1042   1.083       .  S
C1043      C1044   1.404       .  A
C1043      C1048   1.406       .  A
C1043      H1049   1.083       .  S
C1044      C1045   1.413       .  A
C1045      C1046   1.405       .  A
C1045      H1050   1.083       .  S
C1046      C1047   1.404       .  A
C1046      H1051   1.082       .  S
C1047      C1048   1.413       .  A
C1048      H1052   1.083       .  S
C1053      C1054   1.399       .  A
C1053      C1058   1.399       .  A
C1053      H1059   1.083       .  S
C1054      C1055   1.406       .  A
C1055      C1056   1.404       .  A
C1055      H1060   1.084   1_556  S
C1056      C1057   1.403       .  A
C1056      H1061   1.083       .  S
C1057      C1058   1.410       .  A
C1058      H1062   1.084       .  S
C1063      C1064   1.400       .  A
C1063      C1068   1.398       .  A
C1063      H1069   1.084       .  S
C1064      C1065   1.409       .  A
C1065      C1066   1.394       .  A
C1065      H1070   1.083       .  S
C1066      C1067   1.399       .  A
C1066      H1071   1.085       .  S
C1067      C1068   1.411       .  A
C1068      H1072   1.082       .  S
C1073      C1074   1.403       .  A
C1073      C1078   1.404       .  A
C1073      H1079   1.082       .  S
C1074      C1075   1.415       .  A
C1075      C1076   1.410       .  A
C1075      H1080   1.084       .  S
C1076      C1077   1.406       .  A
C1076      H1081   1.081       .  S
C1077      C1078   1.413       .  A
C1078      H1082   1.084       .  S
C1083      C1084   1.413       .  A
C1083      C1088   1.396       .  A
C1083      H1089   1.083       .  S
C1084      C1085   1.397       .  A
C1085      C1086   1.395       .  A
C1085      H1090   1.084       .  S
C1086      C1087   1.412       .  A
C1086      H1091   1.084       .  S
C1087      C1088   1.397       .  A
C1088      H1092   1.083       .  S
C1093      C1094   1.404       .  A
C1093      C1098   1.387       .  A
C1093      H1099   1.084       .  S
C1094      C1095   1.406       .  A
C1095      C1096   1.404       .  A
C1095      H1100   1.082       .  S
C1096      C1097   1.407       .  A
C1096      H1101   1.084       .  S
C1097      C1098   1.402       .  A
C1098      H1102   1.083       .  S
C1103      C1104   1.407       .  A
C1103      C1108   1.401       .  A
C1103      H1109   1.085       .  S
C1104      C1105   1.402       .  A
C1105      C1106   1.398       .  A
C1105      H1110   1.083       .  S
C1106      C1107   1.404       .  A
C1106      H1111   1.084       .  S
C1107      C1108   1.400       .  A
C1108      H1112   1.083       .  S
C1113      C1114   1.409       .  A
C1113      C1118   1.398       .  A
C1113      H1119   1.083       .  S
C1114      C1115   1.401       .  A
C1115      C1116   1.399       .  A
C1115      H1120   1.084       .  S
C1116      C1117   1.410       .  A
C1116      H1121   1.082       .  S
C1117      C1118   1.401       .  A
C1118      H1122   1.083       .  S
C1123      C1124   1.403       .  A
C1123      C1128   1.382       .  A
C1123      H1129   1.083       .  S
C1124      C1125   1.406       .  A
C1125      C1126   1.403       .  A
C1125      H1130   1.083       .  S
C1126      C1127   1.405       .  A
C1126      H1131   1.083       .  S
C1127      C1128   1.399       .  A
C1128      H1132   1.084       .  S
C1133      C1134   1.396       .  A
C1133      C1138   1.394       .  A
C1133      H1139   1.083       .  S
C1134      C1135   1.412       .  A
C1135      C1136   1.393       .  A
C1135      H1140   1.084       .  S
C1136      C1137   1.396       .  A
C1136      H1141   1.083       .  S
C1137      C1138   1.412       .  A
C1138      H1142   1.084       .  S
C1143      C1144   1.404       .  A
C1143      C1148   1.402       .  A
C1143      H1149   1.083       .  S
C1144      C1145   1.403       .  A
C1145      C1146   1.385       .  A
C1145      H1150   1.084       .  S
C1146      C1147   1.402       .  A
C1146      H1151   1.084       .  S
C1147      C1148   1.407       .  A
C1148      H1152   1.083       .  S
C1153      C1154   1.408       .  A
C1153      C1158   1.401       .  A
C1153      H1159   1.084       .  S
C1154      C1155   1.403       .  A
C1155      C1156   1.402       .  A
C1155      H1160   1.084       .  S
C1156      C1157   1.405       .  A
C1156      H1161   1.083       .  S
C1157      C1158   1.401       .  A
C1158      H1162   1.083       .  S
C1163      C1164   1.410       .  A
C1163      C1168   1.397       .  A
C1163      H1169   1.083       .  S
C1164      C1165   1.401       .  A
C1165      C1166   1.396       .  A
C1165      H1170   1.085       .  S
C1166      C1167   1.409       .  A
C1166      H1171   1.083       .  S
C1167      C1168   1.400       .  A
C1168      H1172   1.085       .  S
C1173      C1174   1.412       .  A
C1173      C1178   1.396       .  A
C1173      H1179   1.084       .  S
C1174      C1175   1.397       .  A
C1175      C1176   1.395       .  A
C1175      H1180   1.083       .  S
C1176      C1177   1.411       .  A
C1176      H1181   1.084       .  S
C1177      C1178   1.397       .  A
C1178      H1182   1.083       .  S
C1183      C1184   1.404       .  A
C1183      C1188   1.399       .  A
C1183      H1189   1.084       .  S
C1184      C1185   1.402       .  A
C1185      C1186   1.404       .  A
C1185      H1190   1.083       .  S
C1186      C1187   1.409       .  A
C1186      H1191   1.084       .  S
C1187      C1188   1.402       .  A
C1188      H1192   1.084       .  S
C1193      C1194   1.403   1_554  A
C1193      C1198   1.403       .  A
C1193      H1199   1.082       .  S
C1194      C1195   1.413       .  A
C1195      C1196   1.403       .  A
C1195      H1200   1.084       .  S
C1196      C1197   1.404   1_556  A
C1196      H1201   1.081       .  S
C1197      C1198   1.412       .  A
C1198      H1202   1.084       .  S
C1203      C1204   1.404       .  A
C1203      C1208   1.402       .  A
C1203      H1209   1.084       .  S
C1204      C1205   1.401       .  A
C1205      C1206   1.402       .  A
C1205      H1210   1.083       .  S
C1206      C1207   1.409       .  A
C1206      H1211   1.084       .  S
C1207      C1208   1.403       .  A
C1208      H1212   1.083       .  S
C1213      C1214   1.410       .  A
C1213      C1218   1.400       .  A
C1213      H1219   1.084       .  S
C1214      C1215   1.404       .  A
C1215      C1216   1.406       .  A
C1215      H1220   1.083       .  S
C1216      C1217   1.407       .  A
C1216      H1221   1.084       .  S
C1217      C1218   1.399       .  A
C1218      H1222   1.083       .  S
C1223      C1224   1.414       .  A
C1223      C1228   1.406       .  A
C1223      H1229   1.084       .  S
C1224      C1225   1.405       .  A
C1225      C1226   1.407       .  A
C1225      H1230   1.082       .  S
C1226      C1227   1.413       .  A
C1226      H1231   1.084       .  S
C1227      C1228   1.405       .  A
C1228      H1232   1.082       .  S
C1233      C1234   1.400       .  A
C1233      C1238   1.397       .  A
C1233      H1239   1.085       .  S
C1234      C1235   1.409       .  A
C1235      C1236   1.393       .  A
C1235      H1240   1.083       .  S
C1236      C1237   1.399       .  A
C1236      H1241   1.085       .  S
C1237      C1238   1.410       .  A
C1238      H1242   1.082       .  S
C1243      C1244   1.406       .  A
C1243      C1248   1.402       .  A
C1243      H1249   1.083       .  S
C1244      C1245   1.403       .  A
C1245      C1246   1.382       .  A
C1245      H1250   1.083       .  S
C1246      C1247   1.399       .  A
C1246      H1251   1.084       .  S
C1247      C1248   1.405       .  A
C1248      H1252   1.084       .  S
C1253      C1254   1.402       .  A
C1253      C1258   1.399       .  A
C1253      H1259   1.084       .  S
C1254      C1255   1.408       .  A
C1255      C1256   1.402       .  A
C1255      H1260   1.084       .  S
C1256      C1257   1.400       .  A
C1256      H1261   1.083       .  S
C1257      C1258   1.404       .  A
C1258      H1262   1.084       .  S
C1263      C1264   1.402       .  A
C1263      C1268   1.403       .  A
C1263      H1269   1.082       .  S
C1264      C1265   1.403       .  A
C1265      C1266   1.397       .  A
C1265      H1270   1.085       .  S
C1266      C1267   1.401       .  A
C1266      H1271   1.084       .  S
C1267      C1268   1.408       .  A
C1268      H1272   1.084       .  S
C1273      C1274   1.404       .  A
C1273      C1278   1.406       .  A
C1273      H1279   1.082       .  S
C1274      C1275   1.414       .  A
C1275      C1276   1.406       .  A
C1275      H1280   1.083       .  S
C1276      C1277   1.404       .  A
C1276      H1281   1.083       .  S
C1277      C1278   1.414       .  A
C1278      H1282   1.083       .  S
C1283      C1284   1.402       .  A
C1283      C1288   1.402       .  A
C1283      H1289   1.083       .  S
C1284      C1285   1.404   1_554  A
C1285      C1286   1.401   1_556  A
C1285      H1290   1.083       .  S
C1286      C1287   1.403       .  A
C1286      H1291   1.084       .  S
C1287      C1288   1.408       .  A
C1288      H1292   1.084       .  S
C1293      C1294   1.396       .  A
C1293      C1298   1.394       .  A
C1293      H1299   1.081   1_556  S
C1294      C1295   1.411       .  A
C1295      C1296   1.394       .  A
C1295      H1300   1.086       .  S
C1296      C1297   1.396       .  A
C1296      H1301   1.084       .  S
C1297      C1298   1.412       .  A
C1298      H1302   1.087       .  S
C1303      C1304   1.398       .  A
C1303      C1308   1.395       .  A
C1303      H1309   1.085       .  S
C1304      C1305   1.409       .  A
C1305      C1306   1.395       .  A
C1305      H1310   1.082       .  S
C1306      C1307   1.400       .  A
C1306      H1311   1.084       .  S
C1307      C1308   1.409       .  A
C1308      H1312   1.083       .  S
C1313      C1314   1.405       .  A
C1313      C1318   1.408       .  A
C1313      H1319   1.082       .  S
C1314      C1315   1.414       .  A
C1315      C1316   1.405       .  A
C1315      H1320   1.084       .  S
C1316      C1317   1.404       .  A
C1316      H1321   1.082       .  S
C1317      C1318   1.414       .  A
C1318      H1322   1.084       .  S
C1323      C1324   1.398       .  A
C1323      C1328   1.395       .  A
C1323      H1329   1.084       .  S
C1324      C1325   1.403       .  A
C1325      C1326   1.395       .  A
C1325      H1330   1.083       .  S
C1326      C1327   1.398       .  A
C1326      H1331   1.085       .  S
C1327      C1328   1.404       .  A
C1328      H1332   1.083       .  S
C1333      C1334   1.407       .  A
C1333      C1338   1.402       .  A
C1333      H1339   1.084       .  S
C1334      C1335   1.402       .  A
C1335      C1336   1.398       .  A
C1335      H1340   1.083       .  S
C1336      C1337   1.403       .  A
C1336      H1341   1.084       .  S
C1337      C1338   1.401       .  A
C1338      H1342   1.083       .  S
C1343      C1344   1.413       .  A
C1343      C1348   1.395       .  A
C1343      H1349   1.083       .  S
C1344      C1345   1.396       .  A
C1345      C1346   1.394       .  A
C1345      H1350   1.084       .  S
C1346      C1347   1.412       .  A
C1346      H1351   1.081       .  S
C1347      C1348   1.396       .  A
C1348      H1352   1.083       .  S
C1353      C1354   1.404       .  A
C1353      C1358   1.398       .  A
C1353      H1359   1.088       .  S
C1354      C1355   1.397       .  A
C1355      C1356   1.394       .  A
C1355      H1360   1.084       .  S
C1356      C1357   1.405       .  A
C1356      H1361   1.079       .  S
C1357      C1358   1.400       .  A
C1358      H1362   1.080       .  S
C1363      C1364   1.409       .  A
C1363      C1368   1.397       .  A
C1363      H1369   1.084       .  S
C1364      C1365   1.404       .  A
C1365      C1366   1.406       .  A
C1365      H1370   1.083       .  S
C1366      C1367   1.407       .  A
C1366      H1371   1.084       .  S
C1367      C1368   1.398       .  A
C1368      H1372   1.083       .  S
C1373      C1374   1.408       .  A
C1373      C1378   1.397       .  A
C1373      H1379   1.083       .  S
C1374      C1375   1.401       .  A
C1375      C1376   1.398       .  A
C1375      H1380   1.084       .  S
C1376      C1377   1.409       .  A
C1376      H1381   1.083       .  S
C1377      C1378   1.402       .  A
C1378      H1382   1.084       .  S
C1383      C1384   1.412       .  A
C1383      C1388   1.392       .  A
C1383      H1389   1.082       .  S
C1384      C1385   1.397       .  A
C1385      C1386   1.396       .  A
C1385      H1390   1.084       .  S
C1386      C1387   1.412       .  A
C1386      H1391   1.087       .  S
C1387      C1388   1.394       .  A
C1388      H1392   1.090       .  S
C1393      C1394   1.403       .  A
C1393      C1398   1.402       .  A
C1393      H1399   1.083       .  S
C1394      C1395   1.408       .  A
C1395      C1396   1.403       .  A
C1395      H1400   1.084       .  S
C1396      C1397   1.402       .  A
C1396      H1401   1.083       .  S
C1397      C1398   1.405       .  A
C1398      H1402   1.084       .  S
C1403      C1404   1.409       .  A
C1403      C1408   1.401       .  A
C1403      H1409   1.084       .  S
C1404      C1405   1.402       .  A
C1405      C1406   1.401       .  A
C1405      H1410   1.084       .  S
C1406      C1407   1.405       .  A
C1406      H1411   1.084       .  S
C1407      C1408   1.400       .  A
C1408      H1412   1.083       .  S
C1413      C1414   1.400   1_655  A
C1413      C1418   1.397       .  A
C1413      H1419   1.085       .  S
C1414      C1415   1.410       .  A
C1415      C1416   1.400       .  A
C1415      H1420   1.083       .  S
C1416      C1417   1.402   1_455  A
C1416      H1421   1.084       .  S
C1417      C1418   1.411       .  A
C1418      H1422   1.082       .  S
C1423      C1424   1.406       .  A
C1423      C1428   1.404       .  A
C1423      H1429   1.084   1_556  S
C1424      C1425   1.399       .  A
C1425      C1426   1.399       .  A
C1425      H1430   1.083       .  S
C1426      C1427   1.408       .  A
C1426      H1431   1.084       .  S
C1427      C1428   1.403       .  A
C1428      H1432   1.083       .  S
C1433      C1434   1.403       .  A
C1433      C1438   1.402       .  A
C1433      H1439   1.083       .  S
C1434      C1435   1.409       .  A
C1435      C1436   1.404       .  A
C1435      H1440   1.084       .  S
C1436      C1437   1.402       .  A
C1436      H1441   1.083       .  S
C1437      C1438   1.405       .  A
C1438      H1442   1.084   1_554  S
C1443      C1444   1.414       .  A
C1443      C1448   1.409       .  A
C1443      H1449   1.083       .  S
C1444      C1445   1.404       .  A
C1445      C1446   1.405       .  A
C1445      H1450   1.082       .  S
C1446      C1447   1.414       .  A
C1446      H1451   1.083       .  S
C1447      C1448   1.406       .  A
C1448      H1452   1.082       .  S
C1453      C1454   1.397       .  A
C1453      C1458   1.395       .  A
C1453      H1459   1.083       .  S
C1454      C1455   1.411       .  A
C1455      C1456   1.396       .  A
C1455      H1460   1.084       .  S
C1456      C1457   1.397       .  A
C1456      H1461   1.083       .  S
C1457      C1458   1.413       .  A
C1458      H1462   1.084       .  S
C1463      C1464   1.403       .  A
C1463      C1468   1.387       .  A
C1463      H1469   1.083       .  S
C1464      C1465   1.405       .  A
C1465      C1466   1.402       .  A
C1465      H1470   1.083       .  S
C1466      C1467   1.406       .  A
C1466      H1471   1.083       .  S
C1467      C1468   1.402       .  A
C1468      H1472   1.084       .  S
C1473      C1474   1.400       .  A
C1473      C1478   1.400       .  A
C1473      H1479   1.083       .  S
C1474      C1475   1.405       .  A
C1475      C1476   1.403       .  A
C1475      H1480   1.083       .  S
C1476      C1477   1.403       .  A
C1476      H1481   1.083       .  S
C1477      C1478   1.408       .  A
C1478      H1482   1.084       .  S
C1483      C1484   1.413       .  A
C1483      C1488   1.407       .  A
C1483      H1489   1.084       .  S
C1484      C1485   1.404       .  A
C1485      C1486   1.405       .  A
C1485      H1490   1.082       .  S
C1486      C1487   1.412       .  A
C1486      H1491   1.084       .  S
C1487      C1488   1.405       .  A
C1488      H1492   1.082       .  S
C1493      C1494   1.408       .  A
C1493      C1498   1.393       .  A
C1493      H1499   1.083       .  S
C1494      C1495   1.401       .  A
C1495      C1496   1.397       .  A
C1495      H1500   1.084       .  S
C1496      C1497   1.408       .  A
C1496      H1501   1.083       .  S
C1497      C1498   1.399       .  A
C1498      H1502   1.084       .  S
C1503      C1504   1.406       .  A
C1503      C1508   1.402   1_455  A
C1503      H1509   1.083       .  S
C1504      C1505   1.405       .  A
C1505      C1506   1.383   1_455  A
C1505      H1510   1.083       .  S
C1506      C1507   1.397       .  A
C1506      H1511   1.084       .  S
C1507      C1508   1.405       .  A
C1508      H1512   1.083       .  S
C1513      C1514   1.405       .  A
C1513      C1518   1.400       .  A
C1513      H1519   1.084       .  S
C1514      C1515   1.401       .  A
C1515      C1516   1.403       .  A
C1515      H1520   1.083       .  S
C1516      C1517   1.407       .  A
C1516      H1521   1.084       .  S
C1517      C1518   1.403       .  A
C1518      H1522   1.083       .  S
C1523      C1524   1.408       .  A
C1523      C1528   1.403       .  A
C1523      H1529   1.083       .  S
C1524      C1525   1.403       .  A
C1525      C1526   1.400       .  A
C1525      H1530   1.084       .  S
C1526      C1527   1.404       .  A
C1526      H1531   1.084       .  S
C1527      C1528   1.402       .  A
C1528      H1532   1.083       .  S
C1533      C1534   1.404       .  A
C1533      C1538   1.406       .  A
C1533      H1539   1.081       .  S
C1534      C1535   1.414       .  A
C1535      C1536   1.407       .  A
C1535      H1540   1.084       .  S
C1536      C1537   1.405       .  A
C1536      H1541   1.081       .  S
C1537      C1538   1.414       .  A
C1538      H1542   1.084       .  S
C1543      C1544   1.412       .  A
C1543      C1548   1.395       .  A
C1543      H1549   1.084       .  S
C1544      C1545   1.397       .  A
C1545      C1546   1.396       .  A
C1545      H1550   1.083       .  S
C1546      C1547   1.413       .  A
C1546      H1551   1.083       .  S
C1547      C1548   1.396       .  A
C1548      H1552   1.083       .  S
C1553      C1554   1.402       .  A
C1553      C1558   1.385       .  A
C1553      H1559   1.084       .  S
C1554      C1555   1.406       .  A
C1555      C1556   1.406       .  A
C1555      H1560   1.083       .  S
C1556      C1557   1.407       .  A
C1556      H1561   1.083       .  S
C1557      C1558   1.403       .  A
C1558      H1562   1.083       .  S
C1563      C1564   1.402       .  A
C1563      C1568   1.404       .  A
C1563      H1569   1.083       .  S
C1564      C1565   1.405       .  A
C1565      C1566   1.400       .  A
C1565      H1570   1.084       .  S
C1566      C1567   1.403       .  A
C1566      H1571   1.083       .  S
C1567      C1568   1.408       .  A
C1568      H1572   1.084       .  S
C1573      C1574   1.413       .  A
C1573      C1578   1.396   1_455  A
C1573      H1579   1.084       .  S
C1574      C1575   1.397       .  A
C1575      C1576   1.397   1_455  A
C1575      H1580   1.083       .  S
C1576      C1577   1.413       .  A
C1576      H1581   1.084       .  S
C1577      C1578   1.397       .  A
C1578      H1582   1.083       .  S
C1583      C1584   1.400       .  A
C1583      C1588   1.396       .  A
C1583      H1589   1.085       .  S
C1584      C1585   1.410       .  A
C1585      C1586   1.396       .  A
C1585      H1590   1.083       .  S
C1586      C1587   1.399       .  A
C1586      H1591   1.085       .  S
C1587      C1588   1.409       .  A
C1588      H1592   1.083       .  S
C1593      C1594   1.413       .  A
C1593      C1598   1.407       .  A
C1593      H1599   1.084       .  S
C1594      C1595   1.404       .  A
C1595      C1596   1.406       .  A
C1595      H1600   1.082       .  S
C1596      C1597   1.413       .  A
C1596      H1601   1.084       .  S
C1597      C1598   1.405       .  A
C1598      H1602   1.082       .  S
C1603      C1604   1.399       .  A
C1603      C1608   1.399       .  A
C1603      H1609   1.083       .  S
C1604      C1605   1.404       .  A
C1605      C1606   1.400       .  A
C1605      H1610   1.084       .  S
C1606      C1607   1.402       .  A
C1606      H1611   1.084       .  S
C1607      C1608   1.408       .  A
C1608      H1612   1.084       .  S
C1613      C1614   1.400       .  A
C1613      C1618   1.402       .  A
C1613      H1619   1.083       .  S
C1614      C1615   1.405       .  A
C1615      C1616   1.402       .  A
C1615      H1620   1.084       .  S
C1616      C1617   1.403       .  A
C1616      H1621   1.083       .  S
C1617      C1618   1.409       .  A
C1618      H1622   1.084       .  S
C1623      C1624   1.415       .  A
C1623      C1628   1.406       .  A
C1623      H1629   1.083       .  S
C1624      C1625   1.403       .  A
C1625      C1626   1.405       .  A
C1625      H1630   1.082       .  S
C1626      C1627   1.414       .  A
C1626      H1631   1.084       .  S
C1627      C1628   1.404       .  A
C1628      H1632   1.082       .  S
C1633      C1634   1.409       .  A
C1633      C1638   1.404       .  A
C1633      H1639   1.084       .  S
C1634      C1635   1.403       .  A
C1635      C1636   1.401       .  A
C1635      H1640   1.083       .  S
C1636      C1637   1.405       .  A
C1636      H1641   1.084   1_554  S
C1637      C1638   1.401       .  A
C1638      H1642   1.083       .  S
C1643      C1644   1.402       .  A
C1643      C1648   1.399       .  A
C1643      H1649   1.084       .  S
C1644      C1645   1.409       .  A
C1645      C1646   1.403       .  A
C1645      H1650   1.084       .  S
C1646      C1647   1.401       .  A
C1646      H1651   1.083       .  S
C1647      C1648   1.404       .  A
C1648      H1652   1.084   1_556  S
C1653      C1654   1.411       .  A
C1653      C1658   1.399       .  A
C1653      H1659   1.082       .  S
C1654      C1655   1.402       .  A
C1655      C1656   1.398       .  A
C1655      H1660   1.083       .  S
C1656      C1657   1.409       .  A
C1656      H1661   1.083       .  S
C1657      C1658   1.400       .  A
C1658      H1662   1.084       .  S
C1663      C1664   1.413       .  A
C1663      C1668   1.405       .  A
C1663      H1669   1.083       .  S
C1664      C1665   1.405       .  A
C1665      C1666   1.406       .  A
C1665      H1670   1.083       .  S
C1666      C1667   1.413       .  A
C1666      H1671   1.083       .  S
C1667      C1668   1.405       .  A
C1668      H1672   1.083       .  S
C1673      C1674   1.406       .  A
C1673      C1678   1.405       .  A
C1673      H1679   1.083       .  S
C1674      C1675   1.400       .  A
C1675      C1676   1.385       .  A
C1675      H1680   1.084       .  S
C1676      C1677   1.404       .  A
C1676      H1681   1.083       .  S
C1677      C1678   1.407       .  A
C1678      H1682   1.083       .  S
C1683      C1684   1.406       .  A
C1683      C1688   1.403       .  A
C1683      H1689   1.083       .  S
C1684      C1685   1.400       .  A
C1685      C1686   1.401       .  A
C1685      H1690   1.084       .  S
C1686      C1687   1.408       .  A
C1686      H1691   1.084       .  S
C1687      C1688   1.403       .  A
C1688      H1692   1.084       .  S
C1693      C1694   1.408       .  A
C1693      C1698   1.402       .  A
C1693      H1699   1.084       .  S
C1694      C1695   1.403       .  A
C1695      C1696   1.402       .  A
C1695      H1700   1.083       .  S
C1696      C1697   1.405       .  A
C1696      H1701   1.084       .  S
C1697      C1698   1.401       .  A
C1698      H1702   1.083       .  S
C1703      C1704   1.404       .  A
C1703      C1708   1.405       .  A
C1703      H1709   1.082       .  S
C1704      C1705   1.413   1_455  A
C1705      C1706   1.405       .  A
C1705      H1710   1.084       .  S
C1706      C1707   1.404       .  A
C1706      H1711   1.082       .  S
C1707      C1708   1.413   1_655  A
C1708      H1712   1.084       .  S
C1713      C1714   1.405       .  A
C1713      C1718   1.401       .  A
C1713      H1719   1.084       .  S
C1714      C1715   1.401       .  A
C1715      C1716   1.403       .  A
C1715      H1720   1.083       .  S
C1716      C1717   1.408       .  A
C1716      H1721   1.084       .  S
C1717      C1718   1.403       .  A
C1718      H1722   1.083       .  S
C1723      C1724   1.403       .  A
C1723      C1728   1.401       .  A
C1723      H1729   1.083       .  S
C1724      C1725   1.408       .  A
C1725      C1726   1.402       .  A
C1725      H1730   1.084       .  S
C1726      C1727   1.400       .  A
C1726      H1731   1.083       .  S
C1727      C1728   1.404       .  A
C1728      H1732   1.084       .  S
C1733      C1734   1.412       .  A
C1733      C1738   1.395       .  A
C1733      H1739   1.083       .  S
C1734      C1735   1.398       .  A
C1735      C1736   1.397       .  A
C1735      H1740   1.083       .  S
C1736      C1737   1.412       .  A
C1736      H1741   1.084       .  S
C1737      C1738   1.397       .  A
C1738      H1742   1.083       .  S
C1743      C1744   1.410       .  A
C1743      C1748   1.399       .  A
C1743      H1749   1.082       .  S
C1744      C1745   1.400   1_655  A
C1745      C1746   1.396       .  A
C1745      H1750   1.085       .  S
C1746      C1747   1.409       .  A
C1746      H1751   1.083       .  S
C1747      C1748   1.401   1_455  A
C1748      H1752   1.084       .  S
C1753      C1754   1.412   1_455  A
C1753      C1758   1.407       .  A
C1753      H1759   1.083       .  S
C1754      C1755   1.407   1_556  A
C1755      C1756   1.409       .  A
C1755      H1760   1.082       .  S
C1756      C1757   1.413   1_655  A
C1756      H1761   1.083       .  S
C1757      C1758   1.406   1_554  A
C1758      H1762   1.083       .  S
C1763      C1764   1.405       .  A
C1763      C1768   1.401   1_655  A
C1763      H1769   1.083       .  S
C1764      C1765   1.403       .  A
C1765      C1766   1.385   1_655  A
C1765      H1770   1.083       .  S
C1766      C1767   1.402       .  A
C1766      H1771   1.083       .  S
C1767      C1768   1.404       .  A
C1768      H1772   1.083       .  S
C1773      C1774   1.400       .  A
C1773      C1778   1.401       .  A
C1773      H1779   1.083       .  S
C1774      C1775   1.405       .  A
C1775      C1776   1.402       .  A
C1775      H1780   1.084       .  S
C1776      C1777   1.403       .  A
C1776      H1781   1.083       .  S
C1777      C1778   1.408       .  A
C1778      H1782   1.084       .  S
C1783      C1784   1.403       .  A
C1783      C1788   1.402       .  A
C1783      H1789   1.083       .  S
C1784      C1785   1.409       .  A
C1785      C1786   1.400       .  A
C1785      H1790   1.084       .  S
C1786      C1787   1.399       .  A
C1786      H1791   1.083       .  S
C1787      C1788   1.405       .  A
C1788      H1792   1.084       .  S
C1793      C1794   1.415       .  A
C1793      C1798   1.406       .  A
C1793      H1799   1.084       .  S
C1794      C1795   1.405       .  A
C1795      C1796   1.408       .  A
C1795      H1800   1.081       .  S
C1796      C1797   1.415       .  A
C1796      H1801   1.084       .  S
C1797      C1798   1.404       .  A
C1798      H1802   1.081       .  S
C1803      C1804   1.397       .  A
C1803      C1808   1.396       .  A
C1803      H1809   1.083       .  S
C1804      C1805   1.413       .  A
C1805      C1806   1.395       .  A
C1805      H1810   1.084       .  S
C1806      C1807   1.397       .  A
C1806      H1811   1.083       .  S
C1807      C1808   1.412       .  A
C1808      H1812   1.084       .  S
C1813      C1814   1.405       .  A
C1813      C1818   1.385       .  A
C1813      H1819   1.083       .  S
C1814      C1815   1.406       .  A
C1815      C1816   1.403       .  A
C1815      H1820   1.083       .  S
C1816      C1817   1.405       .  A
C1816      H1821   1.083       .  S
C1817      C1818   1.399       .  A
C1818      H1822   1.084       .  S
C1823      C1824   1.405       .  A
C1823      C1828   1.402       .  A
C1823      H1829   1.084       .  S
C1824      C1825   1.400       .  A
C1825      C1826   1.402       .  A
C1825      H1830   1.083       .  S
C1826      C1827   1.409       .  A
C1826      H1831   1.084       .  S
C1827      C1828   1.403       .  A
C1828      H1832   1.083       .  S
C1833      C1834   1.408       .  A
C1833      C1838   1.402       .  A
C1833      H1839   1.083       .  S
C1834      C1835   1.401       .  A
C1835      C1836   1.398       .  A
C1835      H1840   1.084       .  S
C1836      C1837   1.404       .  A
C1836      H1841   1.084       .  S
C1837      C1838   1.401       .  A
C1838      H1842   1.083       .  S
C1843      C1844   1.400       .  A
C1843      C1848   1.398       .  A
C1843      H1849   1.085       .  S
C1844      C1845   1.410       .  A
C1845      C1846   1.400       .  A
C1845      H1850   1.083       .  S
C1846      C1847   1.402       .  A
C1846      H1851   1.085       .  S
C1847      C1848   1.411       .  A
C1848      H1852   1.082       .  S
C1853      C1854   1.412       .  A
C1853      C1858   1.396   1_655  A
C1853      H1859   1.084       .  S
C1854      C1855   1.397       .  A
C1855      C1856   1.396   1_655  A
C1855      H1860   1.084       .  S
C1856      C1857   1.413       .  A
C1856      H1861   1.084       .  S
C1857      C1858   1.396       .  A
C1858      H1862   1.083       .  S
C1863      C1864   1.405       .  A
C1863      C1868   1.407       .  A
C1863      H1869   1.082       .  S
C1864      C1865   1.414       .  A
C1865      C1866   1.406       .  A
C1865      H1870   1.084       .  S
C1866      C1867   1.404       .  A
C1866      H1871   1.082       .  S
C1867      C1868   1.414       .  A
C1868      H1872   1.084       .  S
