geometry optimzed in LAMMPS
_audit_creation_date              2020-12-01 
_audit_creation_method            'lammps2cif' 
_symmetry_space_group_name_H-M    'P1' 
_symmetry_Int_Tables_number       1 
_symmetry_cell_setting            triclinic 
loop_ 
_symmetry_equiv_pos_as_xyz 
  x,y,z 
_cell_length_a                    27.36599644 
_cell_length_b                    27.314822131307995 
_cell_length_c                    44.88795468975369 
_cell_angle_alpha                 90.0434271114145 
_cell_angle_beta                  90.67336501915798 
_cell_angle_gamma                 89.35697129878054 
loop_ 
_atom_site_label 
_atom_site_type_symbol 
_atom_site_fract_x 
_atom_site_fract_y 
_atom_site_fract_z 
_atom_site_charge 
Fe1        Fe  0.42860151  0.79095198  0.07336722     1.65800
Fe2        Fe  0.50229666  0.69836093  0.09139093     1.73200
Fe3        Fe  0.54741413  0.79986663  0.05836008     1.54400
O4          O  0.50909196  0.82065965  0.52181660    -0.82300
O5          O  0.55961879  0.72016221  0.11820167    -0.80600
O6          O  0.43770238  0.78323156  0.52656850    -0.84800
O7          O  0.45138579  0.86185899  0.07222077    -0.79700
O8          O  0.56635780  0.74169054  0.03066897    -0.81400
O9          O  0.45531496  0.71568181  0.12598827    -0.84200
C10         C  0.48845594  0.88406415  0.08206880     0.96600
C11         C  0.47214839  0.79940147  0.51044793     1.04000
O12         O  0.49386563  0.76305147  0.07482178    -1.13200
O13         O  0.44718509  0.67026377  0.06457777    -0.75600
O14         O  0.39154971  0.72590499  0.07466875    -0.79100
O15         O  0.52987467  0.86199793  0.08445852    -0.79800
C16         C  0.40344505  0.68552522  0.06308956     0.95500
O17         O  0.43114026  0.79319618  0.11915469    -0.79300
O18         O  0.54959554  0.67645841  0.05862608    -0.82900
C19         C  0.59822263  0.74222124  0.11080315     0.98100
C20         C  0.56713995  0.69562866  0.03535986     1.04000
O21         O  0.59917969  0.77326904  0.08955363    -0.78600
C22         C  0.44396102  0.75782587  0.13623249     1.02300
Fe23       Fe  0.78450989  0.44184519  0.20223925     1.65800
Fe24       Fe  0.68853107  0.51157336  0.18377053     1.73200
Fe25       Fe  0.78794332  0.56120188  0.21757764     1.54400
O26         O  0.81639472  0.51677270  0.25132088    -0.82300
O27         O  0.70422803  0.57357665  0.16001926    -0.80600
O28         O  0.77773661  0.44555272  0.24811646    -0.84800
O29         O  0.85381652  0.46873686  0.20553899    -0.79700
O30         O  0.72894097  0.57792903  0.24518338    -0.81400
O31         O  0.71143888  0.47085145  0.14712801    -0.84200
C32         C  0.87307974  0.50483634  0.19295847     0.96600
C33         C  0.79456560  0.48117779  0.26344938     1.04000
O34         O  0.75318707  0.50590688  0.20073873    -1.13200
O35         O  0.66322654  0.45170017  0.20644620    -0.75600
O36         O  0.72290026  0.39920358  0.19923088    -0.79100
O37         O  0.84972715  0.54561064  0.19089606    -0.79800
C38         C  0.67994481  0.40847753  0.20739150     0.95500
O39         O  0.78825276  0.44500352  0.15638921    -0.77700
O40         O  0.66338169  0.55261336  0.21931614    -0.82900
C41         C  0.72798758  0.61176899  0.16644774     0.98100
C42         C  0.68268513  0.57327965  0.24196563     1.04000
O43         O  0.76067132  0.61277143  0.18688270    -0.78600
C44         C  0.75422398  0.45852726  0.13830761     1.02300
Fe45       Fe  0.43984378  0.18119105  0.32044099     1.65800
Fe46       Fe  0.51354803  0.27333476  0.33559113     1.73200
Fe47       Fe  0.55833901  0.16797404  0.30527718     1.54400
O48         O  0.53962835  0.10752237  0.33233051    -0.82300
O49         O  0.55458205  0.29267488  0.29955065    -0.80600
O50         O  0.46205713  0.10976124  0.31860872    -0.84800
O51         O  0.44253527  0.18569869  0.27430058    -0.79700
O52         O  0.61110786  0.19259668  0.33597265    -0.81400
O53         O  0.45418618  0.30085777  0.31144287    -0.84200
C54         C  0.47769030  0.16726129  0.25920347     0.96600
C55         C  0.49807841  0.08675391  0.32966941     1.04000
O56         O  0.50522918  0.20773592  0.32099450    -1.13200
O57         O  0.47345269  0.25559071  0.37326740    -0.75600
O58         O  0.44538907  0.17954885  0.36633141    -0.79100
O59         O  0.51168725  0.14277016  0.27201779    -0.79800
C60         C  0.46135840  0.21359197  0.38336716     0.95500
O61         O  0.40024868  0.24573449  0.32238752    -0.77700
O62         O  0.57558355  0.25559719  0.35951857    -0.82900
C63         C  0.57546533  0.27052708  0.27816886     0.98100
C64         C  0.61218491  0.22810929  0.35445713     1.04000
O65         O  0.57905068  0.22395418  0.27658747    -0.78600
C66         C  0.41050736  0.28649483  0.31120072     1.02300
Fe67       Fe  0.77942861  0.52664654  0.45143298     1.65800
Fe68       Fe  0.68977227  0.45306652  0.43100272     1.73200
Fe69       Fe  0.79217685  0.40702480  0.46452211     1.54400
O70         O  0.85377809  0.42770111  0.43935865    -0.82300
O71         O  0.66796876  0.40638098  0.46418791    -0.80600
O72         O  0.85070411  0.50423680  0.45485962    -0.84800
O73         O  0.77207176  0.52514746  0.99818010    -0.79700
O74         O  0.76901566  0.35664129  0.43191706    -0.81400
O75         O  0.66014201  0.50777637  0.45700318    -0.84200
C76         C  0.79069133  0.48954064  0.01312423     0.96600
C77         C  0.87396002  0.46941905  0.44291284     1.04000
O78         O  0.75370426  0.46108479  0.44845989    -1.13200
O79         O  0.70811571  0.50006880  0.39650770    -0.75600
O80         O  0.78415702  0.52584140  0.40547645    -0.79100
O81         O  0.81401083  0.45462471  0.00061565    -0.79800
C82         C  0.75022759  0.51266265  0.38739973     0.95500
O83         O  0.71388773  0.56462673  0.44858914    -0.77700
O84         O  0.71191400  0.39562948  0.40461518    -0.82900
C85         C  0.68815190  0.38717816  0.48710883     0.98100
C86         C  0.73727141  0.35775974  0.41082437     1.04000
O87         O  0.73160936  0.38883239  0.99314610    -0.78600
C88         C  0.67339908  0.55177106  0.45885568     1.02300
Fe89       Fe  0.51651404  0.18491454  0.07089303     1.65800
Fe90       Fe  0.44150577  0.27804506  0.08640574     1.73200
Fe91       Fe  0.39864363  0.17684134  0.05108511     1.54400
O92         O  0.45255067  0.15821916  0.52054836    -0.82300
O93         O  0.37899581  0.25844510  0.10829622    -0.80600
O94         O  0.52253969  0.19830293  0.52658817    -0.84800
O95         O  0.49260757  0.11406180  0.06930641    -0.79700
O96         O  0.38278920  0.23532719  0.02227419    -0.81400
O97         O  0.48069083  0.25789359  0.12463011    -0.84200
C98         C  0.45455454  0.09307084  0.07829495     0.96600
C99         C  0.48908237  0.18040819  0.50983195     1.04000
O100        O  0.45113207  0.21346171  0.07007465    -1.13200
O101        O  0.50123944  0.30652290  0.06430149    -0.75600
O102        O  0.55570007  0.24882508  0.07300790    -0.79100
O103        O  0.41330240  0.11566256  0.07849254    -0.79800
C104        C  0.54474503  0.29065610  0.06299131     0.95500
O105        O  0.51177394  0.18268447  0.11657699    -0.77700
O106        O  0.40107805  0.30081279  0.05010292    -0.82900
C107        C  0.34207303  0.23421860  0.09980276     0.98100
C108        C  0.38398764  0.28164522  0.02642179     1.04000
O109        O  0.34370197  0.20256541  0.07904789    -0.78600
C110        C  0.49552240  0.21599290  0.13398174     1.02300
Fe111      Fe  0.17612187  0.52760612  0.19749511     1.65800
Fe112      Fe  0.26694275  0.45158287  0.18023959     1.73200
Fe113      Fe  0.16306870  0.40796758  0.21119108     1.54400
O114        O  0.14021325  0.45227198  0.24604193    -0.82300
O115        O  0.24687337  0.39164351  0.15570032    -0.80600
O116        O  0.18223782  0.52170787  0.24339414    -0.84800
O117        O  0.10433436  0.50741303  0.19903974    -0.79700
O118        O  0.22076094  0.38329075  0.23850611    -0.81400
O119        O  0.24769747  0.49422011  0.14329032    -0.84200
C120        C  0.08100701  0.47194986  0.18817193     0.96600
C121        C  0.16388491  0.48678667  0.25838660     1.04000
O122        O  0.20216559  0.46124028  0.19572969    -1.13200
O123        O  0.29652483  0.50863454  0.20464815    -0.75600
O124        O  0.24092771  0.56503698  0.19617944    -0.79100
O125        O  0.10154084  0.42993496  0.18545156    -0.79800
C126        C  0.28243946  0.55271272  0.20605603     0.95500
O127        O  0.17305405  0.52675853  0.15154285    -0.77700
O128        O  0.28837957  0.40810956  0.21556675    -0.82900
C129        C  0.21772475  0.35651277  0.15946438     0.98100
C130        C  0.26720065  0.38601002  0.23665549     1.04000
O131        O  0.18398149  0.35723768  0.17875351    -0.78600
C132        C  0.20629799  0.51096433  0.13403559     1.02300
Fe133      Fe  0.17412307  0.45088572  0.44729274     1.65800
Fe134      Fe  0.26566840  0.52391747  0.43005995     1.73200
Fe135      Fe  0.16362128  0.57091087  0.46223771     1.54400
O136        O  0.10142348  0.55288479  0.43651327    -0.82300
O137        O  0.28825868  0.56712971  0.46521620    -0.80600
O138        O  0.10294678  0.47424403  0.44831984    -0.84800
O139        O  0.17941238  0.45585045  0.99258204    -0.79700
O140        O  0.18643005  0.62191671  0.43059026    -0.81400
O141        O  0.29390546  0.46675542  0.45453908    -0.84200
C142        C  0.16186325  0.49117153  0.00805985     0.96600
C143        C  0.08020015  0.51156921  0.43870113     1.04000
O144        O  0.20105111  0.51637851  0.44576594    -1.13200
O145        O  0.24661601  0.48095276  0.39338987    -0.75600
O146        O  0.17155781  0.45164918  0.40141255    -0.79100
O147        O  0.13798284  0.52630918  0.99579310    -0.79800
C148        C  0.20557493  0.46474915  0.38389407     0.95500
O149        O  0.23841487  0.41130061  0.44612508    -0.77700
O150        O  0.24558570  0.58367462  0.40538242    -0.82900
C151        C  0.26799945  0.58781047  0.48735554     0.98100
C152        C  0.21871122  0.62077136  0.41034879     1.04000
O153        O  0.21807334  0.59314887  0.98827078    -0.78600
C154        C  0.27960573  0.42317893  0.45623350     1.02300
Fe155      Fe  0.51822009  0.78510044  0.32193931     1.65800
Fe156      Fe  0.44292517  0.69604348  0.34052419     1.73200
Fe157      Fe  0.40019872  0.79681888  0.30406417     1.54400
O158        O  0.41686490  0.85859586  0.33036074    -0.82300
O159        O  0.39797920  0.67324527  0.30620757    -0.80600
O160        O  0.49545519  0.85686647  0.31921629    -0.84800
O161        O  0.51518343  0.77760511  0.27594722    -0.79700
O162        O  0.34662064  0.77356051  0.33329216    -0.81400
O163        O  0.49972696  0.66367522  0.31692033    -0.84200
C164        C  0.48106252  0.79703215  0.26017180     0.96600
C165        C  0.45840527  0.87958236  0.32898971     1.04000
O166        O  0.45277150  0.75914851  0.32263881    -1.13200
O167        O  0.48735679  0.71522482  0.37644892    -0.75600
O168        O  0.51472344  0.79051210  0.36764876    -0.79100
O169        O  0.44695760  0.82204866  0.27184140    -0.79800
C170        C  0.49969165  0.75774685  0.38550983     0.95500
O171        O  0.55553544  0.71913437  0.32505869    -0.77700
O172        O  0.38393319  0.72131248  0.36453046    -0.82900
C173        C  0.38226970  0.69162372  0.28183585     0.98100
C174        C  0.34611269  0.74420789  0.35525397     1.04000
O175        O  0.38301409  0.73760008  0.27649800    -0.78600
C176        C  0.54371801  0.67732029  0.31567309     1.02300
C177        C  0.25072481  0.70479937  0.40983474    -0.26900
C178        C  0.23121553  0.66528922  0.39362698    -0.15000
C179        C  0.24092991  0.66147206  0.36297967     0.35600
C180        C  0.27359446  0.69383835  0.34977953    -0.26400
C181        C  0.29884415  0.72835875  0.36704531    -0.15600
C182        C  0.28557105  0.73551186  0.39701366     0.36700
N183        N  0.30905214  0.77150233  0.41525861    -0.89900
H184        H  0.24407724  0.70772905  0.43353370     0.17800
H185        H  0.28374450  0.68785657  0.32676129     0.17800
N186        N  0.22151455  0.62158760  0.34596501    -0.88900
H187        H  0.30400512  0.80564994  0.40507650     0.35200
H188        H  0.34650166  0.76368209  0.41609016     0.40300
H189        H  0.25080564  0.60088821  0.33771693     0.39900
H190        H  0.20212608  0.63617312  0.32779180     0.34800
C191        C  0.32654445  0.67384418  0.23861091    -0.26900
C192        C  0.36182695  0.65729634  0.25927155    -0.15000
C193        C  0.37577969  0.60724513  0.25895145     0.35600
C194        C  0.35149131  0.57437446  0.24007738    -0.26400
C195        C  0.31342931  0.59013998  0.22106646    -0.15600
C196        C  0.30240746  0.64097342  0.21938042     0.36700
N197        N  0.26613646  0.65906452  0.19860814    -0.89900
H198        H  0.31653181  0.71232068  0.23811657     0.17800
H199        H  0.36130071  0.53586914  0.24131426     0.17800
N200        N  0.41454286  0.58934624  0.27788350    -0.88900
H201        H  0.27918642  0.65239476  0.17716706     0.35200
H202        H  0.26191713  0.69701891  0.20055998     0.40300
H203        H  0.44133668  0.57348975  0.26442454     0.39900
H204        H  0.40054116  0.56194361  0.29151127     0.34800
C205        C  0.22185135  0.48220138  0.30057988    -0.26900
C206        C  0.17314680  0.48312838  0.29062598    -0.15000
C207        C  0.13554673  0.47320585  0.31095069     0.35600
C208        C  0.14719815  0.46491676  0.34094641    -0.26400
C209        C  0.19595619  0.46508243  0.35125466    -0.15600
C210        C  0.23367708  0.47252897  0.33048152     0.36700
N211        N  0.28406469  0.46977757  0.33943805    -0.89900
H212        H  0.25109609  0.48744509  0.28483034     0.17800
H213        H  0.11758431  0.45965468  0.35639580     0.17800
N214        N  0.08513532  0.47279393  0.30196926    -0.88900
H215        H  0.30033216  0.50312674  0.33428078     0.35200
H216        H  0.30110246  0.44238879  0.32684612     0.40300
H217        H  0.07980390  0.44450320  0.28663734     0.39900
H218        H  0.07664579  0.50613611  0.29162703     0.34800
C219        C  0.15548935  0.53626535  0.05638307    -0.26900
C220        C  0.17060117  0.49381094  0.04084904    -0.15000
C221        C  0.19803534  0.45780807  0.05640172     0.35600
C222        C  0.21046524  0.46524180  0.08646640    -0.26400
C223        C  0.19559297  0.50773512  0.10174372    -0.15600
C224        C  0.16759829  0.54334027  0.08654399     0.36700
N225        N  0.15251736  0.58730805  0.10139748    -0.89900
H226        H  0.13491763  0.56489791  0.04500411     0.17800
H227        H  0.23121113  0.43700331  0.09810597     0.17800
N228        N  0.21356144  0.41369212  0.04187219    -0.88900
H229        H  0.11440007  0.58969534  0.10015234     0.35200
H230        H  0.16669626  0.61707184  0.08981979     0.40300
H231        H  0.19878108  0.38400145  0.05319605     0.39900
H232        H  0.25163155  0.41119139  0.04350421     0.34800
C233        C  0.32608560  0.30049366  0.98420081    -0.26900
C234        C  0.36343064  0.31578293  0.00362220    -0.15000
C235        C  0.37103788  0.37185532  0.51121803     0.35600
C236        C  0.34581162  0.40361846  0.49206073    -0.26400
C237        C  0.31027846  0.38646574  0.47210689    -0.15600
C238        C  0.30013003  0.33449726  0.96637809     0.36700
N239        N  0.26181716  0.31759133  0.94709229    -0.89900
H240        H  0.31533478  0.26244074  0.98382978     0.17800
H241        H  0.35271699  0.44250934  0.49395984     0.17800
N242        N  0.40530572  0.39212033  0.53206546    -0.88900
H243        H  0.23607398  0.29974103  0.96010355     0.35200
H244        H  0.27683785  0.29196806  0.93239233     0.40300
H245        H  0.38630905  0.41629023  0.54596120     0.39900
H246        H  0.43034000  0.41266249  0.52010979     0.34800
C247        C  0.23359431  0.31485460  0.11167092    -0.26900
C248        C  0.22904778  0.31146637  0.14265421    -0.15000
C249        C  0.25257482  0.27242647  0.15781429     0.35600
C250        C  0.28547304  0.24174607  0.14253749    -0.26400
C251        C  0.29462555  0.24930933  0.11226239    -0.15600
C252        C  0.26614260  0.28403734  0.09635562     0.36700
N253        N  0.27437082  0.29183267  0.06525296    -0.89900
H254        H  0.21605599  0.34495930  0.09991016     0.17800
H255        H  0.30726427  0.21522155  0.15494184     0.17800
N256        N  0.24767311  0.26760910  0.18940100    -0.88900
H257        H  0.28584293  0.32787339  0.06238430     0.35200
H258        H  0.24104552  0.28784528  0.05390952     0.40300
H259        H  0.28229878  0.27118658  0.19922161     0.39900
H260        H  0.23533363  0.23230044  0.19381648     0.34800
C261        C  0.94233837  0.52911909  0.43842309    -0.26900
C262        C  0.92608437  0.48018644  0.43539486    -0.15000
C263        C  0.96076639  0.44401033  0.42793592     0.35600
C264        C  0.01053646  0.45640537  0.42621458    -0.26400
C265        C  0.02706872  0.50437118  0.43234177    -0.15600
C266        C  0.99207875  0.54124332  0.43738598     0.36700
N267        N  0.00685885  0.59040913  0.44347351    -0.89900
H268        H  0.91655983  0.55834823  0.44328469     0.17800
H269        H  0.03682348  0.42744310  0.42170715     0.17800
N270        N  0.94624545  0.39437238  0.42334535    -0.88900
H271        H  0.99423917  0.60011120  0.46459412     0.35200
H272        H  0.98972127  0.61343326  0.42785845     0.40300
H273        H  0.96521817  0.37237037  0.43874278     0.39900
H274        H  0.95700454  0.38383422  0.40198754     0.34800
C275        C  0.61129322  0.39207062  0.02173282    -0.26900
C276        C  0.65334080  0.36707043  0.01201831    -0.15000
C277        C  0.66173727  0.31869383  0.02158300     0.35600
C278        C  0.62704664  0.29541748  0.03940857    -0.26400
C279        C  0.58358709  0.31954827  0.04807403    -0.15600
C280        C  0.57686643  0.36911503  0.03991160     0.36700
N281        N  0.53529103  0.39647904  0.04994447    -0.89900
H282        H  0.60472429  0.42960759  0.01480887     0.17800
H283        H  0.63340529  0.25743724  0.04537956     0.17800
N284        N  0.70407783  0.29212647  0.01189427    -0.88900
H285        H  0.51703959  0.41055691  0.03121093     0.35200
H286        H  0.54798880  0.42616309  0.06241527     0.40300
H287        H  0.69236548  0.26112382  0.00026958     0.39900
H288        H  0.72351369  0.28034672  0.03080427     0.34800
C289        C  0.43984078  0.01754246  0.33612816    -0.26900
C290        C  0.48882576  0.03404878  0.33691022    -0.15000
C291        C  0.52621761  0.99896589  0.34091638     0.35600
C292        C  0.51463326  0.94881419  0.34094557    -0.26400
C293        C  0.46614734  0.93234188  0.33656168    -0.15600
C294        C  0.42834167  0.96747148  0.33558251     0.36700
N295        N  0.37848076  0.95284523  0.33230131    -0.89900
H296        H  0.40986977  0.04364266  0.33417376     0.17800
H297        H  0.54442460  0.92248638  0.34281246     0.17800
N298        N  0.57611214  0.01365769  0.34359421    -0.88900
H299        H  0.36437338  0.96837381  0.31267974     0.35200
H300        H  0.35887875  0.96735749  0.35017127     0.40300
H301        H  0.59570255  0.99723056  0.32632921     0.39900
H302        H  0.59006346  0.00009063  0.36377759     0.34800
C303        C  0.34302303  0.38669488  0.26757037    -0.26900
C304        C  0.29931027  0.36316461  0.25974635    -0.15000
C305        C  0.28965650  0.31708672  0.27223058     0.35600
C306        C  0.32531924  0.29387285  0.29031131    -0.26400
C307        C  0.37079739  0.31590707  0.29637844    -0.15600
C308        C  0.37843480  0.36385969  0.28584676     0.36700
N309        N  0.42219233  0.38958120  0.29331853    -0.89900
H310        H  0.35031634  0.42287832  0.25888357     0.17800
H311        H  0.31803155  0.25740020  0.29848793     0.17800
N312        N  0.24488315  0.29260333  0.26544440    -0.88900
H313        H  0.41224759  0.42166426  0.30453884     0.35200
H314        H  0.43887194  0.39973425  0.27347270     0.40300
H315        H  0.22725855  0.28558519  0.28551577     0.39900
H316        H  0.25345687  0.25895508  0.25558518     0.34800
C317        C  0.68711509  0.27596887  0.35059428    -0.26900
C318        C  0.65890936  0.24428202  0.36789274    -0.15000
C319        C  0.66646489  0.24318504  0.39897533     0.35600
C320        C  0.69965692  0.27608025  0.41231051    -0.26400
C321        C  0.72299080  0.31204658  0.39530521    -0.15600
C322        C  0.71777998  0.31078615  0.36407631     0.36700
N323        N  0.74045254  0.34735083  0.34620774    -0.89900
H324        H  0.68064432  0.27798715  0.32673747     0.17800
H325        H  0.70254848  0.27764737  0.43639813     0.17800
N326        N  0.63708904  0.21189527  0.41701661    -0.88900
H327        H  0.71299688  0.36651520  0.33456404     0.35200
H328        H  0.76247943  0.32954663  0.33060525     0.40300
H329        H  0.64596729  0.21628964  0.43957816     0.39900
H330        H  0.64593373  0.17571720  0.41148651     0.34800
C331        C  0.44990094  0.21192398  0.21370386    -0.26900
C332        C  0.48091555  0.17628204  0.22655746    -0.15000
C333        C  0.51744026  0.15417470  0.20839552     0.35600
C334        C  0.52189340  0.16833387  0.17865520    -0.26400
C335        C  0.49170547  0.20478842  0.16617765    -0.15600
C336        C  0.45488190  0.22629319  0.18392663     0.36700
N337        N  0.42146694  0.26191582  0.17172715    -0.89900
H338        H  0.42191261  0.22962847  0.22692700     0.17800
H339        H  0.54971454  0.15078199  0.16522333     0.17800
N340        N  0.55080524  0.11724109  0.21911945    -0.88900
H341        H  0.42441285  0.29397968  0.18432041     0.35200
H342        H  0.38600918  0.24875214  0.17413542     0.40300
H343        H  0.53095073  0.08829069  0.22793959     0.39900
H344        H  0.57370967  0.13227681  0.23542295     0.34800
C345        C  0.49340349  0.23897587  0.43350569    -0.26900
C346        C  0.46885583  0.20396101  0.41585164    -0.15000
C347        C  0.45668322  0.15879658  0.42905849     0.35600
C348        C  0.46704406  0.15062694  0.45932277    -0.26400
C349        C  0.48980422  0.18630304  0.47706878    -0.15600
C350        C  0.50388234  0.23056284  0.46381174     0.36700
N351        N  0.52671657  0.26801594  0.48128671    -0.89900
H352        H  0.50448485  0.27341630  0.42388378     0.17800
H353        H  0.45584243  0.11642935  0.46924784     0.17800
N354        N  0.43336209  0.12105956  0.41208533    -0.88900
H355        H  0.50476253  0.29954364  0.48013167     0.35200
H356        H  0.56037629  0.27598077  0.47171980     0.40300
H357        H  0.40019196  0.11295891  0.42219075     0.39900
H358        H  0.45559875  0.08969169  0.41298739     0.34800
C359        C  0.95689462  0.53712328  0.18198217    -0.26900
C360        C  0.92500990  0.49759821  0.18354452    -0.15000
C361        C  0.94478107  0.44953267  0.17991525     0.35600
C362        C  0.99566557  0.44170026  0.17931958    -0.26400
C363        C  0.02786709  0.48094601  0.18140161    -0.15600
C364        C  0.00782578  0.52931945  0.18046171     0.36700
N365        N  0.03907650  0.57093118  0.17868131    -0.89900
H366        H  0.94265417  0.57419669  0.18354252     0.17800
H367        H  0.00984950  0.40451971  0.17875105     0.17800
N368        N  0.91328895  0.40809262  0.17762303    -0.88900
H369        H  0.03263767  0.59320284  0.19718792     0.35200
H370        H  0.02931260  0.59077373  0.15954382     0.40300
H371        H  0.92213083  0.38395112  0.19498663     0.39900
H372        H  0.92046985  0.39028826  0.15749103     0.34800
C373        C  0.60345736  0.38125857  0.23121657    -0.26900
C374        C  0.64946968  0.36878587  0.21984434    -0.15000
C375        C  0.66688981  0.32002789  0.22341651     0.35600
C376        C  0.64066615  0.28688608  0.24092936    -0.26400
C377        C  0.59722801  0.30146919  0.25482268    -0.15600
C378        C  0.57730725  0.34819549  0.24841478     0.36700
N379        N  0.53060946  0.36262624  0.25972975    -0.89900
H380        H  0.58830384  0.41770462  0.22792648     0.17800
H381        H  0.65577894  0.25062140  0.24497023     0.17800
N382        N  0.71174467  0.30425790  0.21015549    -0.88900
H383        H  0.50795166  0.37165648  0.24160194     0.35200
H384        H  0.53525295  0.39410789  0.27269772     0.40300
H385        H  0.70420197  0.27443760  0.19626541     0.39900
H386        H  0.73536745  0.29217093  0.22713785     0.34800
C387        C  0.73669540  0.48232645  0.30489701    -0.26900
C388        C  0.78516519  0.48474196  0.29554499    -0.15000
C389        C  0.82163625  0.49977474  0.31580488     0.35600
C390        C  0.80930453  0.51081657  0.34535024    -0.26400
C391        C  0.76062869  0.50824582  0.35500436    -0.15600
C392        C  0.72391298  0.49470694  0.33410180     0.36700
N393        N  0.67340261  0.49402119  0.34212122    -0.89900
H394        H  0.70808853  0.47297797  0.28902774     0.17800
H395        H  0.83824051  0.52058072  0.36085470     0.17800
N396        N  0.87134836  0.50334370  0.30648210    -0.88900
H397        H  0.66029118  0.45872323  0.33836803     0.35200
H398        H  0.65418243  0.51807475  0.32800465     0.40300
H399        H  0.89273950  0.48021360  0.31997273     0.39900
H400        H  0.88274198  0.53929004  0.31016464     0.34800
C401        C  0.82002914  0.46605542  0.06385476    -0.26900
C402        C  0.78295085  0.48584677  0.04547669    -0.15000
C403        C  0.73621531  0.49399068  0.05728165     0.35600
C404        C  0.72738334  0.48278043  0.08713875    -0.26400
C405        C  0.76446978  0.46348824  0.10592863    -0.15600
C406        C  0.81145970  0.45527124  0.09393174     0.36700
N407        N  0.85071837  0.43623363  0.11202927    -0.89900
H408        H  0.85585719  0.45857241  0.05474512     0.17800
H409        H  0.69106072  0.48981569  0.09559238     0.17800
N410        N  0.69695575  0.51177265  0.03869112    -0.88900
H411        H  0.87915277  0.46149491  0.11191657     0.35200
H412        H  0.86343529  0.40380440  0.10228387     0.40300
H413        H  0.68339488  0.54417063  0.04802490     0.39900
H414        H  0.66902901  0.48595078  0.03885318     0.34800
C415        C  0.66454900  0.63373477  0.28240578    -0.26900
C416        C  0.64927073  0.59411561  0.26487941    -0.15000
C417        C  0.60103013  0.57698359  0.26827785     0.35600
C418        C  0.56786989  0.60283917  0.28631288    -0.26400
C419        C  0.58189178  0.64536157  0.30169128    -0.15600
C420        C  0.63166414  0.65918658  0.30079567     0.36700
N421        N  0.64907765  0.69973449  0.31799748    -0.89900
H422        H  0.70177820  0.64653191  0.28093648     0.17800
H423        H  0.53047662  0.59040391  0.28734416     0.17800
N424        N  0.58536520  0.53336760  0.25339159    -0.88900
H425        H  0.66368268  0.72537636  0.30339307     0.35200
H426        H  0.67727523  0.68704985  0.33199840     0.40300
H427        H  0.55521846  0.54229256  0.23986997     0.39900
H428        H  0.57396419  0.50851922  0.26954412     0.34800
C429        C  0.43216980  0.95645712  0.08727867    -0.26900
C430        C  0.48063586  0.93751429  0.08836342    -0.15000
C431        C  0.51900758  0.97081956  0.09191862     0.35600
C432        C  0.50887702  0.02148486  0.09107432    -0.26400
C433        C  0.46088086  0.04021921  0.08642307    -0.15600
C434        C  0.42210535  0.00702395  0.08602041     0.36700
N435        N  0.37265704  0.02404227  0.08273925    -0.89900
H436        H  0.40146664  0.93185633  0.08571414     0.17800
H437        H  0.53942180  0.04630014  0.09259452     0.17800
N438        N  0.56842119  0.95373484  0.09517430    -0.88900
H439        H  0.35288982  0.01130798  0.10091318     0.35200
H440        H  0.35787746  0.00842849  0.06342188     0.40300
H441        H  0.58243847  0.96757628  0.11521221     0.39900
H442        H  0.58874297  0.96827696  0.07777367     0.34800
C443        C  0.32261015  0.68308567  0.03724854    -0.26900
C444        C  0.36533103  0.65787754  0.04661490    -0.15000
C445        C  0.38259448  0.60950565  0.53352373     0.35600
C446        C  0.34777927  0.58799692  0.51458353    -0.26400
C447        C  0.29595359  0.61263296  0.00884039    -0.15600
C448        C  0.28810199  0.66093491  0.01846069     0.36700
N449        N  0.24660539  0.68851679  0.00787636    -0.89900
H450        H  0.31676459  0.72103796  0.04342190     0.17800
H451        H  0.35815074  0.55546157  0.50222809     0.17800
N452        N  0.43016193  0.58747315  0.53619210    -0.88900
H453        H  0.25929392  0.71941881  0.99677111     0.35200
H454        H  0.22681476  0.70041384  0.02636276     0.40300
H455        H  0.44534162  0.58580328  0.51494617     0.39900
H456        H  0.42608528  0.55163186  0.54387827     0.34800
C457        C  0.62342966  0.67150993  0.49045209    -0.26900
C458        C  0.58985345  0.66212205  0.01338955    -0.15000
C459        C  0.57522529  0.61280240  0.01110550     0.35600
C460        C  0.60098529  0.58018971  0.99291537    -0.26400
C461        C  0.64280714  0.58791826  0.47501311    -0.15600
C462        C  0.64774721  0.63895000  0.47122514     0.36700
N463        N  0.67746784  0.65796784  0.44796844    -0.89900
H464        H  0.62838734  0.71049984  0.48751734     0.17800
H465        H  0.58994175  0.54221503  0.99240411     0.17800
N466        N  0.53386122  0.59548807  0.02706741    -0.88900
H467        H  0.70443814  0.67975517  0.45774169     0.35200
H468        H  0.65544725  0.68040475  0.43439681     0.40300
H469        H  0.54551783  0.56668317  0.04084976     0.39900
H470        H  0.50903237  0.58153680  0.01146827     0.34800
C471        C  0.68522899  0.69164341  0.16904553    -0.26900
C472        C  0.71126778  0.65755658  0.15168477    -0.15000
C473        C  0.70742710  0.66030944  0.12038294     0.35600
C474        C  0.67495182  0.69464474  0.10718048    -0.26400
C475        C  0.64445254  0.72445779  0.12472648    -0.15600
C476        C  0.65092682  0.72404106  0.15585222     0.36700
N477        N  0.62030850  0.75403908  0.17418670    -0.89900
H478        H  0.68716202  0.68920709  0.19313953     0.17800
H479        H  0.66939476  0.69414538  0.08322624     0.17800
N480        N  0.73344435  0.62548899  0.10231488    -0.88900
H481        H  0.64285148  0.77627265  0.18725327     0.35200
H482        H  0.60109562  0.73114979  0.18846318     0.40300
H483        H  0.77079792  0.63160287  0.10547865     0.39900
H484        H  0.72586002  0.63149613  0.07972262     0.34800
C485        C  0.46533779  0.73756652  0.43510148    -0.26900
C486        C  0.49321975  0.76945658  0.41759612    -0.15000
C487        C  0.50941611  0.81371706  0.43035938     0.35600
C488        C  0.49890931  0.82430331  0.46016990    -0.26400
C489        C  0.47216551  0.79184134  0.47780842    -0.15600
C490        C  0.45440888  0.74830334  0.46491337     0.36700
N491        N  0.42747472  0.71395488  0.48240072    -0.89900
H492        H  0.45143271  0.70404924  0.42547579     0.17800
H493        H  0.51304912  0.85772453  0.46984793     0.17800
N494        N  0.53715939  0.84784088  0.41343394    -0.88900
H495        H  0.41972342  0.68245550  0.47004584     0.35200
H496        H  0.39373440  0.73020314  0.48727863     0.40300
H497        H  0.57067004  0.85297946  0.42435466     0.39900
H498        H  0.51829068  0.88134911  0.41318231     0.34800
C499        C  0.45288262  0.81553910  0.17866851    -0.26900
C500        C  0.44988540  0.76684719  0.16865037    -0.15000
C501        C  0.45972111  0.72838895  0.18906074     0.35600
C502        C  0.47387854  0.73932823  0.21839119    -0.26400
C503        C  0.47722842  0.78790022  0.22807296    -0.15600
C504        C  0.46617063  0.82639676  0.20818914     0.36700
N505        N  0.46838161  0.87636606  0.21817177    -0.89900
H506        H  0.44602523  0.84544555  0.16328708     0.17800
H507        H  0.48002032  0.70963151  0.23407041     0.17800
N508        N  0.45462734  0.67818778  0.18039464    -0.88900
H509        H  0.45897463  0.90038687  0.20085552     0.35200
H510        H  0.50471679  0.88352338  0.22398746     0.40300
H511        H  0.42891171  0.66209918  0.19428674     0.39900
H512        H  0.48819907  0.66039622  0.18399059     0.34800
Fe513      Fe  0.43561544  0.78950797  0.57258677     1.65800
Fe514      Fe  0.50872909  0.69691202  0.59170111     1.73200
Fe515      Fe  0.55434111  0.79561232  0.55597131     1.54400
O516        O  0.50235362  0.82664435  0.02419287    -0.82300
O517        O  0.56664822  0.71972577  0.61751805    -0.80600
O518        O  0.43206211  0.78653195  0.02737857    -0.84800
O519        O  0.45936184  0.86055634  0.57020511    -0.79700
O520        O  0.57182824  0.73512456  0.52961059    -0.81400
O521        O  0.46264497  0.71632905  0.62621371    -0.84200
C522        C  0.49769648  0.88330864  0.57758172     0.96600
C523        C  0.46656352  0.80450173  0.01202286     1.04000
O524        O  0.50060834  0.76078935  0.57384968    -1.13200
O525        O  0.45285530  0.66797303  0.56605263    -0.75600
O526        O  0.39730346  0.72449707  0.57461545    -0.79100
O527        O  0.53871965  0.86048380  0.58002213    -0.79800
C528        C  0.40903731  0.68294898  0.56434346     0.95500
O529        O  0.43948176  0.79373495  0.61856009    -0.79300
O530        O  0.55520919  0.67217849  0.55922134    -0.82900
C531        C  0.60513524  0.74147845  0.60960013     0.98100
C532        C  0.57249914  0.68937193  0.53535299     1.04000
O533        O  0.60616338  0.77086865  0.58752108    -0.78600
C534        C  0.45237476  0.75892057  0.63607069     1.02300
Fe535      Fe  0.77770368  0.44178977  0.70314434     1.65800
Fe536      Fe  0.68800479  0.51757321  0.68199592     1.73200
Fe537      Fe  0.78598365  0.56078622  0.71955652     1.54400
O538        O  0.81201490  0.51475130  0.75301887    -0.82300
O539        O  0.71324661  0.57457042  0.65694962    -0.80600
O540        O  0.76991677  0.44593841  0.74915487    -0.84800
O541        O  0.84891162  0.46498293  0.70610679    -0.79700
O542        O  0.72659005  0.57861541  0.74621298    -0.81400
O543        O  0.70833890  0.47150372  0.64697248    -0.84200
C544        C  0.86987390  0.50225833  0.69574050     0.96600
C545        C  0.78806548  0.48042261  0.76485412     1.04000
O546        O  0.75039180  0.50753687  0.70117823    -1.13200
O547        O  0.65681729  0.46252807  0.70652283    -0.75600
O548        O  0.71213368  0.40461367  0.70029915    -0.79100
O549        O  0.84759867  0.54362762  0.69400092    -0.79800
C550        C  0.67066377  0.41843798  0.70931611     0.95500
O551        O  0.78360890  0.44363567  0.65717672    -0.77700
O552        O  0.66367198  0.56471219  0.71524524    -0.82900
C553        C  0.73377014  0.61318379  0.66609985     0.98100
C554        C  0.68100278  0.58073965  0.73985145     1.04000
O555        O  0.76142119  0.61392819  0.68911270    -0.78600
C556        C  0.75087942  0.45788858  0.63849760     1.02300
Fe557      Fe  0.42973195  0.18835084  0.82138103     1.65800
Fe558      Fe  0.50290800  0.27860885  0.84215010     1.73200
Fe559      Fe  0.54850422  0.17940871  0.80657784     1.54400
O560        O  0.53135203  0.11635122  0.83168227    -0.82300
O561        O  0.54928624  0.30263690  0.80942855    -0.80600
O562        O  0.45363447  0.11719792  0.81768873    -0.84800
O563        O  0.43308388  0.19716333  0.77564531    -0.79700
O564        O  0.60070740  0.20364590  0.83782055    -0.81400
O565        O  0.44723172  0.30852096  0.81665902    -0.84200
C566        C  0.46823798  0.17988933  0.76025474     0.96600
C567        C  0.49020784  0.09473883  0.82865714     1.04000
O568        O  0.49479640  0.21555073  0.82387595    -1.13200
O569        O  0.45669575  0.25833520  0.87630504    -0.75600
O570        O  0.43279112  0.18191430  0.86688536    -0.79100
O571        O  0.50297254  0.15544199  0.77244614    -0.79800
C572        C  0.44601699  0.21529732  0.88506946     0.95500
O573        O  0.39159608  0.25349357  0.82510235    -0.77700
O574        O  0.56099342  0.25499317  0.86803962    -0.82900
C575        C  0.56684766  0.28476553  0.78560243     0.98100
C576        C  0.59982677  0.23345415  0.85972965     1.04000
O577        O  0.56635295  0.23894133  0.77999972    -0.78600
C578        C  0.40353059  0.29446304  0.81475898     1.02300
Fe579      Fe  0.77701067  0.53057072  0.95233286     1.65800
Fe580      Fe  0.68514640  0.45806513  0.93411320     1.73200
Fe581      Fe  0.78870090  0.41086599  0.96582723     1.54400
O582        O  0.84949567  0.43086107  0.93962434    -0.82300
O583        O  0.66397734  0.41229701  0.96808894    -0.80600
O584        O  0.84825379  0.50753824  0.95482000    -0.84800
O585        O  0.77242331  0.52017599  0.49729961    -0.79700
O586        O  0.76375811  0.36050047  0.93397477    -0.81400
O587        O  0.65748859  0.51404193  0.95997332    -0.84200
C588        C  0.79100696  0.48483311  0.51253927     0.96600
C589        C  0.87036148  0.47239307  0.94251782     1.04000
O590        O  0.75002354  0.46531680  0.95038514    -1.13200
O591        O  0.70292738  0.50363258  0.89865534    -0.75600
O592        O  0.77960710  0.52861245  0.90639813    -0.79100
O593        O  0.81541508  0.45040819  0.50021516    -0.79800
C594        C  0.74498071  0.51521074  0.88889557     0.95500
O595        O  0.71204123  0.56943922  0.95035328    -0.77700
O596        O  0.70507589  0.39960949  0.90797625    -0.82900
C597        C  0.68516838  0.39074111  0.98987880     0.98100
C598        C  0.73039142  0.36160750  0.91388315     1.04000
O599        O  0.73437328  0.38558096  0.49106329    -0.78600
C600        C  0.67156719  0.55784466  0.96116219     1.02300
Fe601      Fe  0.52343734  0.19157709  0.57274425     1.65800
Fe602      Fe  0.44717576  0.28247051  0.58991983     1.73200
Fe603      Fe  0.40555682  0.18165124  0.55372825     1.54400
O604        O  0.44683441  0.14858113  0.02033696    -0.82300
O605        O  0.38747889  0.25987982  0.61368705    -0.80600
O606        O  0.51575394  0.18993762  0.02489151    -0.84800
O607        O  0.50245255  0.11956561  0.56941574    -0.79700
O608        O  0.38598137  0.24098030  0.52684519    -0.81400
O609        O  0.49114687  0.26358775  0.62625725    -0.84200
C610        C  0.46479044  0.09605563  0.57659063     0.96600
C611        C  0.48145622  0.17226484  0.00887106     1.04000
O612        O  0.45756026  0.21852626  0.57258912    -1.13200
O613        O  0.50387787  0.31219712  0.56581931    -0.75600
O614        O  0.55991216  0.25716400  0.57652202    -0.79100
O615        O  0.42333975  0.11802158  0.57850298    -0.79800
C616        C  0.54786184  0.29767826  0.56500855     0.95500
O617        O  0.51782445  0.18713186  0.61843040    -0.77700
O618        O  0.40248213  0.30537710  0.55571816    -0.82900
C619        C  0.35035891  0.23587126  0.60511836     0.98100
C620        C  0.38496689  0.28690275  0.53202822     1.04000
O621        O  0.35183586  0.20466794  0.58393068    -0.78600
C622        C  0.50272837  0.22094991  0.63584959     1.02300
Fe623      Fe  0.17534149  0.53208634  0.69697015     1.65800
Fe624      Fe  0.26555409  0.45557747  0.68030426     1.73200
Fe625      Fe  0.16164601  0.41290663  0.71149682     1.54400
O626        O  0.13682159  0.45833368  0.74534397    -0.82300
O627        O  0.24413659  0.39751340  0.65438558    -0.80600
O628        O  0.17946229  0.52716419  0.74286684    -0.84800
O629        O  0.10391562  0.51129931  0.69777644    -0.79700
O630        O  0.21805220  0.39116899  0.73984428    -0.81400
O631        O  0.24915981  0.50090114  0.64415933    -0.84200
C632        C  0.07966886  0.47514992  0.68867067     0.96600
C633        C  0.16008857  0.49288883  0.75790717     1.04000
O634        O  0.20077779  0.46571000  0.69559075    -1.13200
O635        O  0.29498230  0.51099574  0.70631710    -0.75600
O636        O  0.24100407  0.56848207  0.69642976    -0.79100
O637        O  0.10030394  0.43325593  0.68534118    -0.79800
C638        C  0.28153021  0.55535803  0.70753307     0.95500
O639        O  0.17350634  0.53082328  0.65115427    -0.77700
O640        O  0.28526851  0.40957738  0.71463300    -0.82900
C641        C  0.21865916  0.36034422  0.66033475     0.98100
C642        C  0.26423662  0.39100278  0.73698996     1.04000
O643        O  0.18587411  0.36056522  0.68036738    -0.78600
C644        C  0.20787252  0.51641167  0.63410616     1.02300
Fe645      Fe  0.17316550  0.45136779  0.94659462     1.65800
Fe646      Fe  0.26415170  0.52477305  0.92981999     1.73200
Fe647      Fe  0.16050354  0.57072496  0.96104084     1.54400
O648        O  0.09832989  0.55059634  0.93537933    -0.82300
O649        O  0.28571461  0.56852890  0.96461514    -0.80600
O650        O  0.10169132  0.47318668  0.94904059    -0.84800
O651        O  0.18015890  0.45581528  0.49329612    -0.79700
O652        O  0.18284642  0.62169079  0.92911341    -0.81400
O653        O  0.29310474  0.46756232  0.95448341    -0.84200
C654        C  0.16381520  0.49183580  0.50853943     0.96600
C655        C  0.07798871  0.50891183  0.93827317     1.04000
O656        O  0.19942550  0.51687222  0.94536343    -1.13200
O657        O  0.24574433  0.48067575  0.89374899    -0.75600
O658        O  0.16957850  0.45459511  0.90067115    -0.79100
O659        O  0.13944358  0.52634717  0.49617130    -0.79800
C660        C  0.20382187  0.46865334  0.88355438     0.95500
O661        O  0.23809098  0.41248033  0.94434559    -0.77700
O662        O  0.24397008  0.58479987  0.90480930    -0.82900
C663        C  0.26441218  0.59018827  0.98595930     0.98100
C664        C  0.21667093  0.62167985  0.90976891     1.04000
O665        O  0.22171310  0.59102406  0.48995759    -0.78600
C666        C  0.27954125  0.42357694  0.95451622     1.02300
Fe667      Fe  0.51836205  0.78950250  0.82334455     1.65800
Fe668      Fe  0.44338236  0.70048942  0.84229257     1.73200
Fe669      Fe  0.40020197  0.80034901  0.80518586     1.54400
O670        O  0.41771422  0.86399194  0.83021620    -0.82300
O671        O  0.39879469  0.67623772  0.80822518    -0.80600
O672        O  0.49586645  0.86086759  0.81870037    -0.84800
O673        O  0.51612006  0.78060601  0.77744102    -0.79700
O674        O  0.34682145  0.77804959  0.83533205    -0.81400
O675        O  0.50009863  0.66930443  0.81833300    -0.84200
C676        C  0.48240371  0.79944279  0.76099607     0.96600
C677        C  0.45944123  0.88464654  0.82817875     1.04000
O678        O  0.45282718  0.76338546  0.82404686    -1.13200
O679        O  0.48746457  0.72121063  0.87816255    -0.75600
O680        O  0.51351803  0.79682243  0.86909576    -0.79100
O681        O  0.44666345  0.82334155  0.77190812    -0.79800
C682        C  0.49828521  0.76427877  0.88708899     0.95500
O683        O  0.55612291  0.72376598  0.82773387    -0.77700
O684        O  0.38383502  0.72470697  0.86611181    -0.82900
C685        C  0.38189071  0.69409977  0.78402594     0.98100
C686        C  0.34608499  0.74799133  0.85705682     1.04000
O687        O  0.38198773  0.74006375  0.77854619    -0.78600
C688        C  0.54395177  0.68309105  0.81681364     1.02300
C689        C  0.25511567  0.70270451  0.91269872    -0.26900
C690        C  0.23102997  0.66769595  0.89498134    -0.15000
C691        C  0.23674194  0.66926595  0.86389398     0.35600
C692        C  0.26947056  0.70255937  0.85131520    -0.26400
C693        C  0.29874171  0.73260095  0.86946468    -0.15600
C694        C  0.28985922  0.73440986  0.90029806     0.36700
N695        N  0.31890433  0.76553254  0.91908864    -0.89900
H696        H  0.25146509  0.70113236  0.93669747     0.17800
H697        H  0.27636051  0.70050090  0.82760191     0.17800
N698        N  0.21233807  0.63436084  0.84530274    -0.88900
H699        H  0.30860757  0.76198568  0.94132975     0.35200
H700        H  0.31117311  0.80175452  0.91294485     0.40300
H701        H  0.23886174  0.61433167  0.83375942     0.39900
H702        H  0.19120673  0.65367123  0.82962798     0.34800
C703        C  0.32688312  0.67600061  0.74038612    -0.26900
C704        C  0.36080313  0.65924642  0.76184387    -0.15000
C705        C  0.37282698  0.60862295  0.76250855     0.35600
C706        C  0.34846679  0.57589127  0.74350490    -0.26400
C707        C  0.31209599  0.59219320  0.72346192    -0.15600
C708        C  0.30254853  0.64316355  0.72130628     0.36700
N709        N  0.26777003  0.66194171  0.70000840    -0.89900
H710        H  0.31786965  0.71466374  0.73898765     0.17800
H711        H  0.35699250  0.53715447  0.74532711     0.17800
N712        N  0.40971540  0.58993911  0.78251616    -0.88900
H713        H  0.28567635  0.68665710  0.68623215     0.35200
H714        H  0.24072073  0.68121318  0.71154547     0.40300
H715        H  0.43664284  0.57246505  0.76989128     0.39900
H716        H  0.39377993  0.56369949  0.79617375     0.34800
C717        C  0.21438252  0.50319846  0.80140716    -0.26900
C718        C  0.16828352  0.49015833  0.79040909    -0.15000
C719        C  0.13440525  0.46885229  0.81000772     0.35600
C720        C  0.14741841  0.46126831  0.83987134    -0.26400
C721        C  0.19402612  0.47346867  0.85096007    -0.15600
C722        C  0.22788089  0.49489105  0.83104357     0.36700
N723        N  0.27638855  0.50859100  0.83974347    -0.89900
H724        H  0.24114749  0.51850053  0.78651502     0.17800
H725        H  0.12045375  0.44576120  0.85450580     0.17800
N726        N  0.08615628  0.45549784  0.80055526    -0.88900
H727        H  0.29515317  0.47777331  0.84793942     0.35200
H728        H  0.27460453  0.53584763  0.85600222     0.40300
H729        H  0.08846462  0.42668822  0.78534730     0.39900
H730        H  0.06936098  0.48575708  0.79026823     0.34800
C731        C  0.14981440  0.53244691  0.55746901    -0.26900
C732        C  0.17433273  0.49596592  0.54097768    -0.15000
C733        C  0.21233461  0.46891137  0.55499373     0.35600
C734        C  0.22401899  0.47786955  0.58499474    -0.26400
C735        C  0.19878150  0.51367306  0.60155577    -0.15600
C736        C  0.16176934  0.54157969  0.58738802     0.36700
N737        N  0.13661153  0.57972112  0.60311766    -0.89900
H738        H  0.12133843  0.55463291  0.54706478     0.17800
H739        H  0.25237282  0.45566285  0.59552701     0.17800
N740        N  0.23986038  0.43291366  0.53887131    -0.88900
H741        H  0.09927492  0.57200603  0.60265035     0.35200
H742        H  0.14175184  0.61258947  0.59170781     0.40300
H743        H  0.23654617  0.39932520  0.54976256     0.39900
H744        H  0.27666611  0.44278987  0.53964911     0.34800
C745        C  0.32790023  0.30331725  0.48916677    -0.26900
C746        C  0.36181219  0.32096161  0.51019385    -0.15000
C747        C  0.37779081  0.36536451  0.00290440     0.35600
C748        C  0.35167812  0.39923097  0.98541097    -0.26400
C749        C  0.31141600  0.38492805  0.96805686    -0.15600
C750        C  0.30169135  0.33559713  0.47039026     0.36700
N751        N  0.26601857  0.31651245  0.45000855    -0.89900
H752        H  0.32022545  0.26452651  0.48801601     0.17800
H753        H  0.36205885  0.43737713  0.98644298     0.17800
N754        N  0.41887054  0.38183642  0.02005901    -0.88900
H755        H  0.24007181  0.29758280  0.46230645     0.35200
H756        H  0.28352021  0.29142018  0.43601771     0.40300
H757        H  0.40685547  0.40942449  0.03447640     0.39900
H758        H  0.44365404  0.39721362  0.00530067     0.34800
C759        C  0.23774076  0.31309023  0.61452470    -0.26900
C760        C  0.23398521  0.31411605  0.64565914    -0.15000
C761        C  0.26086452  0.27927370  0.66258113     0.35600
C762        C  0.29547662  0.24860119  0.64860889    -0.26400
C763        C  0.30273357  0.25117883  0.61777510    -0.15600
C764        C  0.27146569  0.28163787  0.60048605     0.36700
N765        N  0.27769880  0.28473130  0.56889864    -0.89900
H766        H  0.21803025  0.34015794  0.60127668     0.17800
H767        H  0.31960369  0.22589303  0.66219637     0.17800
N768        N  0.25711446  0.27884264  0.69438498    -0.88900
H769        H  0.28659859  0.32079058  0.56360855     0.35200
H770        H  0.24422044  0.27685816  0.55860052     0.40300
H771        H  0.29157091  0.28624054  0.70353085     0.39900
H772        H  0.24742766  0.24354910  0.70089861     0.34800
C773        C  0.95581596  0.44288214  0.93127736    -0.26900
C774        C  0.92244285  0.48165428  0.93417860    -0.15000
C775        C  0.94056853  0.53032394  0.93239188     0.35600
C776        C  0.99121254  0.53894124  0.93158052    -0.26400
C777        C  0.02485018  0.50007294  0.93184281    -0.15600
C778        C  0.00641516  0.45153925  0.92976742     0.36700
N779        N  0.03905308  0.41047332  0.92680471    -0.89900
H780        H  0.94297642  0.40550904  0.93160369     0.17800
H781        H  0.00413180  0.57628355  0.93225440     0.17800
N782        N  0.90770589  0.57154780  0.93205894    -0.88900
H783        H  0.02970416  0.39176601  0.90725316     0.35200
H784        H  0.03365758  0.38694026  0.94479639     0.40300
H785        H  0.91370461  0.59150466  0.91260185     0.39900
H786        H  0.91625412  0.59390346  0.95027017     0.34800
C787        C  0.60828579  0.38797558  0.51276545    -0.26900
C788        C  0.65527402  0.36730053  0.51010830    -0.15000
C789        C  0.66878874  0.32800901  0.52884628     0.35600
C790        C  0.63409777  0.30784828  0.54804134    -0.26400
C791        C  0.58575863  0.32626964  0.54909760    -0.15600
C792        C  0.57375461  0.36817547  0.53202357     0.36700
N793        N  0.52607276  0.38999277  0.53318650    -0.89900
H794        H  0.59774631  0.41942137  0.49933511     0.17800
H795        H  0.64472179  0.27622716  0.56125521     0.17800
N796        N  0.71690890  0.30703359  0.52760751    -0.88900
H797        H  0.51130888  0.38945369  0.51160375     0.35200
H798        H  0.52985529  0.42656950  0.53963183     0.40300
H799        H  0.71372442  0.27003112  0.52200352     0.39900
H800        H  0.73261200  0.30916829  0.54890485     0.34800
C801        C  0.52286613  0.00890909  0.83516369    -0.26900
C802        C  0.48314519  0.04145157  0.83524976    -0.15000
C803        C  0.43545423  0.02171264  0.83812601     0.35600
C804        C  0.42823536  0.97067550  0.83735846    -0.26400
C805        C  0.46770695  0.93809140  0.83446344    -0.15600
C806        C  0.51581612  0.95789425  0.83508793     0.36700
N807        N  0.55810208  0.92646175  0.83508027    -0.89900
H808        H  0.55965501  0.02293201  0.83378214     0.17800
H809        H  0.39134543  0.95674992  0.83793763     0.17800
N810        N  0.39379575  0.05342945  0.84139523    -0.88900
H811        H  0.57908055  0.93421011  0.85408567     0.35200
H812        H  0.57884094  0.93477849  0.81636422     0.40300
H813        H  0.37663913  0.04454381  0.86134083     0.39900
H814        H  0.36937083  0.04647056  0.82385769     0.34800
C815        C  0.34423206  0.38722412  0.76273746    -0.26900
C816        C  0.29632411  0.36955523  0.76045654    -0.15000
C817        C  0.28220844  0.33092803  0.77937677     0.35600
C818        C  0.31707179  0.30896492  0.79830594    -0.26400
C819        C  0.36601261  0.32453232  0.79890609    -0.15600
C820        C  0.37900991  0.36517468  0.78148976     0.36700
N821        N  0.42796975  0.38315916  0.78164861    -0.89900
H822        H  0.35551168  0.41777039  0.74913406     0.17800
H823        H  0.30606287  0.27816026  0.81176156     0.17800
N824        N  0.23370823  0.31173066  0.77905603    -0.88900
H825        H  0.42689011  0.42009187  0.78778401     0.35200
H826        H  0.44133025  0.38081225  0.75996101     0.40300
H827        H  0.22512697  0.30014106  0.75743835     0.39900
H828        H  0.20934997  0.33952662  0.78530573     0.34800
C829        C  0.67728794  0.27819172  0.85560841    -0.26900
C830        C  0.64614093  0.25033375  0.87349420    -0.15000
C831        C  0.65224519  0.25207992  0.90464532     0.35600
C832        C  0.68708694  0.28355514  0.91741676    -0.26400
C833        C  0.71386411  0.31577769  0.89962962    -0.15600
C834        C  0.70992938  0.31191817  0.86844502     0.36700
N835        N  0.73628388  0.34477704  0.84985696    -0.89900
H836        H  0.67218949  0.27813113  0.83161625     0.17800
H837        H  0.68877973  0.28707538  0.94146872     0.17800
N838        N  0.62065651  0.22461488  0.92339514    -0.88900
H839        H  0.71096097  0.36483641  0.83703079     0.35200
H840        H  0.75761953  0.32383023  0.83536619     0.40300
H841        H  0.60186470  0.24922510  0.93709533     0.39900
H842        H  0.64245364  0.20209808  0.93703998     0.34800
C843        C  0.49910736  0.15581719  0.71072205    -0.26900
C844        C  0.47135874  0.18884614  0.72781755    -0.15000
C845        C  0.45471813  0.23299365  0.71449129     0.35600
C846        C  0.46678725  0.24313286  0.68494231    -0.26400
C847        C  0.49528415  0.21033642  0.66795206    -0.15600
C848        C  0.51116241  0.16602619  0.68116281     0.36700
N849        N  0.53998733  0.13129298  0.66488725    -0.89900
H850        H  0.51257798  0.12197425  0.72056876     0.17800
H851        H  0.45322208  0.27700105  0.67519257     0.17800
N852        N  0.42707612  0.26905867  0.73050997    -0.88900
H853        H  0.52134470  0.09810263  0.66437568     0.35200
H854        H  0.57297680  0.12575003  0.67645508     0.40300
H855        H  0.44742286  0.28013935  0.74913074     0.39900
H856        H  0.39447471  0.25340453  0.73750793     0.34800
C857        C  0.47221842  0.23985476  0.93610540    -0.26900
C858        C  0.45256167  0.20374863  0.91713518    -0.15000
C859        C  0.44570518  0.15607612  0.92847967     0.35600
C860        C  0.45842743  0.14571602  0.95811384    -0.26400
C861        C  0.47824720  0.18178211  0.97677111    -0.15600
C862        C  0.48497588  0.22929353  0.96568700     0.36700
N863        N  0.50262018  0.26749697  0.98475965    -0.89900
H864        H  0.47818872  0.27663979  0.92801765     0.17800
H865        H  0.45188889  0.10936802  0.96678712     0.17800
N866        N  0.42591306  0.11794400  0.91018346    -0.88900
H867        H  0.47622482  0.29547047  0.98525978     0.35200
H868        H  0.53426090  0.28168669  0.97540798     0.40300
H869        H  0.39432413  0.10504016  0.92028206     0.39900
H870        H  0.45140524  0.08917236  0.90946389     0.34800
C871        C  0.95327068  0.53674083  0.68995591    -0.26900
C872        C  0.92250548  0.49644320  0.68804272    -0.15000
C873        C  0.94344221  0.44977545  0.68185868     0.35600
C874        C  0.99451314  0.44375945  0.68040232    -0.26400
C875        C  0.02571926  0.48351556  0.68462771    -0.15600
C876        C  0.00431323  0.53118027  0.68808113     0.36700
N877        N  0.03427718  0.57398634  0.69058261    -0.89900
H878        H  0.93760245  0.57264442  0.69419271     0.17800
H879        H  0.00970826  0.40739082  0.67708254     0.17800
N880        N  0.91302074  0.40797482  0.67747292    -0.88900
H881        H  0.05133090  0.57880653  0.67008968     0.35200
H882        H  0.01299384  0.60542316  0.69415889     0.40300
H883        H  0.92280556  0.38169863  0.69343197     0.39900
H884        H  0.92040230  0.39331361  0.65644149     0.34800
C885        C  0.60837964  0.40164703  0.74744255    -0.26900
C886        C  0.63932126  0.38333599  0.72534593    -0.15000
C887        C  0.64323737  0.33215254  0.72148268     0.35600
C888        C  0.61814181  0.30056676  0.74063047    -0.26400
C889        C  0.58929400  0.31904381  0.76393546    -0.15600
C890        C  0.58351887  0.37047474  0.76662367     0.36700
N891        N  0.55299384  0.39173309  0.78902043    -0.89900
H892        H  0.60503390  0.44066630  0.75090817     0.17800
H893        H  0.62245936  0.26139504  0.73767275     0.17800
N894        N  0.67274315  0.31200781  0.69825910    -0.88900
H895        H  0.52678719  0.41396447  0.77841303     0.35200
H896        H  0.57464404  0.41413989  0.80256628     0.40300
H897        H  0.65038785  0.29053025  0.68459189     0.39900
H898        H  0.69921478  0.28907110  0.70805104     0.34800
C899        C  0.73000979  0.48275317  0.80656667    -0.26900
C900        C  0.77850322  0.48416931  0.79702260    -0.15000
C901        C  0.81536127  0.49861515  0.81720541     0.35600
C902        C  0.80339661  0.51062000  0.84665168    -0.26400
C903        C  0.75476503  0.50931453  0.85647402    -0.15600
C904        C  0.71767967  0.49576636  0.83582233     0.36700
N905        N  0.66730015  0.49574801  0.84414415    -0.89900
H906        H  0.70112173  0.47366186  0.79083351     0.17800
H907        H  0.83267084  0.52016132  0.86197445     0.17800
N908        N  0.86517711  0.50072440  0.80788606    -0.88900
H909        H  0.65377516  0.46053254  0.84067165     0.35200
H910        H  0.64812001  0.51975512  0.82998169     0.40300
H911        H  0.88598493  0.47729565  0.82154687     0.39900
H912        H  0.87747405  0.53639996  0.81132579     0.34800
C913        C  0.81877190  0.46201233  0.56406125    -0.26900
C914        C  0.78224733  0.48125140  0.54502822    -0.15000
C915        C  0.73539023  0.49020366  0.55649878     0.35600
C916        C  0.72584359  0.48030969  0.58651027    -0.26400
C917        C  0.76226249  0.46154520  0.60597259    -0.15600
C918        C  0.80960959  0.45249039  0.59440112     0.36700
N919        N  0.84847140  0.43433663  0.61332750    -0.89900
H920        H  0.85464762  0.45416193  0.55514412     0.17800
H921        H  0.68940635  0.48800604  0.59457817     0.17800
N922        N  0.69666558  0.50774544  0.53745228    -0.88900
H923        H  0.88126009  0.43194619  0.60166389     0.35200
H924        H  0.83971924  0.39857305  0.61939154     0.40300
H925        H  0.68331407  0.54059844  0.54633475     0.39900
H926        H  0.66848207  0.48222717  0.53774668     0.34800
C927        C  0.66363744  0.63704312  0.78278632    -0.26900
C928        C  0.64639517  0.60323316  0.76162220    -0.15000
C929        C  0.59584583  0.59231638  0.76109651     0.35600
C930        C  0.56389380  0.61701929  0.78044838    -0.26400
C931        C  0.58068215  0.65275609  0.80046438    -0.15600
C932        C  0.63144422  0.66198173  0.80195115     0.36700
N933        N  0.65063372  0.69703314  0.82261469    -0.89900
H934        H  0.70221392  0.64547693  0.78388850     0.17800
H935        H  0.52517947  0.60939123  0.77906444     0.17800
N936        N  0.57679300  0.55638020  0.74079210    -0.88900
H937        H  0.66882448  0.72384458  0.81052507     0.35200
H938        H  0.67631121  0.67917356  0.83632662     0.40300
H939        H  0.53894469  0.55327642  0.74290345     0.39900
H940        H  0.59185253  0.52262270  0.74705959     0.34800
C941        C  0.44319221  0.95740909  0.58248098    -0.26900
C942        C  0.49141813  0.93790565  0.58178739    -0.15000
C943        C  0.53029292  0.97154000  0.58239691     0.35600
C944        C  0.52020191  0.02225652  0.58235355    -0.26400
C945        C  0.47187048  0.04163985  0.58116019    -0.15600
C946        C  0.43309654  0.00798032  0.58184860     0.36700
N947        N  0.38296555  0.02352258  0.58086956    -0.89900
H948        H  0.41223889  0.93303431  0.58249409     0.17800
H949        H  0.55104998  0.04676781  0.58227716     0.17800
N950        N  0.58035180  0.95575843  0.58207762    -0.88900
H951        H  0.37666459  0.04330824  0.56125161     0.35200
H952        H  0.37628091  0.04607764  0.59923177     0.40300
H953        H  0.58625152  0.93522221  0.56276771     0.39900
H954        H  0.58705751  0.93367670  0.60072279     0.34800
C955        C  0.32254480  0.67135981  0.54690194    -0.26900
C956        C  0.37089299  0.65312687  0.54893229    -0.15000
C957        C  0.37168093  0.60848985  0.03818906     0.35600
C958        C  0.33718500  0.58648100  0.01925161    -0.26400
C959        C  0.30076450  0.60849029  0.51075647    -0.15600
C960        C  0.28752173  0.64937331  0.52817022     0.36700
N961        N  0.23933332  0.67012940  0.52597546    -0.89900
H962        H  0.31213963  0.70414279  0.55897146     0.17800
H963        H  0.34307777  0.54890400  0.01223025     0.17800
N964        N  0.41288070  0.58045493  0.04870252    -0.88900
H965        H  0.24232408  0.70659258  0.51923871     0.35200
H966        H  0.22405686  0.66981538  0.54721968     0.40300
H967        H  0.43115674  0.56665740  0.03015397     0.39900
H968        H  0.39977981  0.55060087  0.06066426     0.34800
C969        C  0.62817119  0.67838161  0.99560527    -0.26900
C970        C  0.59451831  0.65417144  0.51379821    -0.15000
C971        C  0.58796837  0.60292696  0.51655398     0.35600
C972        C  0.61162176  0.57073523  0.49707695    -0.26400
C973        C  0.64132575  0.59550764  0.97651084    -0.15600
C974        C  0.65403750  0.64565267  0.97727416     0.36700
N975        N  0.69363813  0.66357520  0.95994859    -0.89900
H976        H  0.63939565  0.71626504  0.99672699     0.17800
H977        H  0.60715593  0.53170927  0.50026718     0.17800
N978        N  0.55791436  0.58286508  0.53933731    -0.88900
H979        H  0.71922922  0.67919178  0.97448248     0.35200
H980        H  0.67998615  0.69117365  0.94592386     0.40300
H981        H  0.57971451  0.55976293  0.55262675     0.39900
H982        H  0.53110154  0.56148908  0.52907813     0.34800
C983        C  0.68944266  0.69165863  0.66911093    -0.26900
C984        C  0.71783154  0.65944993  0.65185757    -0.15000
C985        C  0.71657438  0.66407506  0.62064021     0.35600
C986        C  0.68437633  0.69813522  0.60713089    -0.26400
C987        C  0.65118007  0.72547776  0.62432149    -0.15600
C988        C  0.65500931  0.72337895  0.65557871     0.36700
N989        N  0.62128599  0.75045434  0.67355984    -0.89900
H990        H  0.68932573  0.68772840  0.69314806     0.17800
H991        H  0.68111382  0.69861930  0.58303434     0.17800
N992        N  0.74512545  0.63156494  0.60260712    -0.88900
H993        H  0.64143049  0.77276270  0.68797573     0.35200
H994        H  0.60197020  0.72557917  0.68649814     0.40300
H995        H  0.76726406  0.65277479  0.58901369     0.39900
H996        H  0.72129379  0.61190142  0.58882052     0.34800
C997        C  0.47361298  0.73933181  0.93818580    -0.26900
C998        C  0.49066839  0.77629520  0.91916763    -0.15000
C999        C  0.49479892  0.82444015  0.93060732     0.35600
C1000       C  0.48456541  0.83375104  0.96074540    -0.26400
C1001       C  0.46829244  0.79642166  0.97955038    -0.15600
C1002       C  0.46221123  0.74902288  0.96796908     0.36700
N1003       N  0.44666134  0.70994470  0.98680095    -0.89900
H1004       H  0.46899050  0.70231985  0.93003118     0.17800
H1005       H  0.48974621  0.87030304  0.96956924     0.17800
N1006       N  0.50884064  0.86414608  0.91182961    -0.88900
H1007       H  0.47381632  0.68269203  0.98693461     0.35200
H1008       H  0.41488660  0.69513466  0.97751337     0.40300
H1009       H  0.54021317  0.87994677  0.92100515     0.39900
H1010       H  0.48081613  0.89050030  0.91195589     0.34800
C1011       C  0.45618219  0.81709607  0.67892466    -0.26900
C1012       C  0.45853838  0.76851966  0.66855254    -0.15000
C1013       C  0.47258882  0.73098367  0.68884609     0.35600
C1014       C  0.48442232  0.74274631  0.71842968    -0.26400
C1015       C  0.48131431  0.79103343  0.72864839    -0.15600
C1016       C  0.46708641  0.82864578  0.70876531     0.36700
N1017       N  0.46344498  0.87838714  0.71908734    -0.89900
H1018       H  0.44630322  0.84639451  0.66368223     0.17800
H1019       H  0.49358610  0.71348417  0.73390746     0.17800
N1020       N  0.47419823  0.68065343  0.67985342    -0.88900
H1021       H  0.45232083  0.90167992  0.70176543     0.35200
H1022       H  0.49848565  0.88929542  0.72560300     0.40300
H1023       H  0.45038439  0.66107164  0.69334958     0.39900
H1024       H  0.50961801  0.66720930  0.68370231     0.34800
loop_ 
_geom_bond_atom_site_label_1 
_geom_bond_atom_site_label_2 
_geom_bond_distance 
_geom_bond_site_symmetry_2 
_ccdc_geom_bond_type 
Fe1          O17   2.057       .  S
Fe1           O7   2.042       .  S
Fe1          O14   2.057       .  S
Fe1         O518   2.071       .  S
Fe1          O12   1.934       .  S
Fe2           O5   2.059       .  S
Fe2           O9   2.079       .  S
Fe2          O13   2.072       .  S
Fe2          O18   2.055       .  S
Fe2          O12   1.928       .  S
Fe3          O21   2.104       .  S
Fe3           O8   2.081       .  S
Fe3          O15   2.115       .  S
Fe3         O516   2.084       .  S
Fe3          O12   1.940       .  S
O4         Fe515   2.071       .  S
O4           C11   1.273       .  A
O5           C19   1.270       .  A
O6         Fe513   2.074       .  S
O6           C11   1.278       .  A
O7           C10   1.263       .  A
O8           C20   1.276       .  A
O9           C22   1.276       .  A
C10          O15   1.281       .  A
C10         C430   1.500       .  S
C11         C489   1.479       .  S
O13          C16   1.264       .  A
O14          C16   1.260       .  A
C16         C444   1.485       .  S
O17          C22   1.277       .  A
O18          C20   1.270       .  A
C19          O21   1.278       .  A
C19         C475   1.481       .  S
C20         C458   1.482       .  S
C22         C500   1.483       .  S
Fe23         O39   2.064       .  S
Fe23         O29   2.045       .  S
Fe23         O36   2.063       .  S
Fe23         O28   2.072       .  S
Fe23         O34   1.941       .  S
Fe24         O27   2.054       .  S
Fe24         O31   2.084       .  S
Fe24         O35   2.058       .  S
Fe24         O40   2.069       .  S
Fe24         O34   1.923       .  S
Fe25         O43   2.096       .  S
Fe25         O30   2.093       .  S
Fe25         O37   2.123       .  S
Fe25         O26   2.080       .  S
Fe25         O34   1.942       .  S
O26          C33   1.273       .  A
O27          C41   1.267       .  A
O28          C33   1.278       .  A
O29          C32   1.260       .  A
O30          C42   1.280       .  A
O31          C44   1.282       .  A
C32          O37   1.281       .  A
C32         C360   1.498       .  S
C33         C388   1.469       .  S
O35          C38   1.262       .  A
O36          C38   1.258       .  A
C38         C374   1.488       .  S
O39          C44   1.280       .  A
O40          C42   1.275       .  A
C41          O43   1.274       .  A
C41         C472   1.481       .  S
C42         C416   1.492       .  S
C44         C405   1.490       .  S
Fe45         O61   2.061       .  S
Fe45         O51   2.077       .  S
Fe45         O58   2.064       .  S
Fe45         O50   2.039       .  S
Fe45         O56   1.938       .  S
Fe46         O49   2.053       .  S
Fe46         O53   2.076       .  S
Fe46         O57   2.087       .  S
Fe46         O62   2.052       .  S
Fe46         O56   1.922       .  S
Fe47         O65   2.087       .  S
Fe47         O52   2.100       .  S
Fe47         O59   2.075       .  S
Fe47         O48   2.121       .  S
Fe47         O56   1.944       .  S
O48          C55   1.281       .  A
O49          C63   1.272       .  A
O50          C55   1.260       .  A
O51          C54   1.282       .  A
O52          C64   1.276       .  A
O53          C66   1.262       .  A
C54          O59   1.272       .  A
C54         C332   1.490       .  S
C55         C290   1.501       .  S
O57          C60   1.282       .  A
O58          C60   1.281       .  A
C60         C346   1.493       .  S
O61          C66   1.258       .  A
O62          C64   1.268       .  A
C63          O65   1.277       .  A
C63         C377   1.481       .  S
C64         C318   1.479       .  S
C66         C307   1.494       .  S
Fe67         O83   2.065       .  S
Fe67         O80   2.069       .  S
Fe67         O72   2.042       .  S
Fe67        O585   2.078       .  S
Fe67         O78   1.935       .  S
Fe68         O71   2.060       .  S
Fe68         O75   2.060       .  S
Fe68         O79   2.082       .  S
Fe68         O84   2.055       .  S
Fe68         O78   1.923       .  S
Fe69         O74   2.105       .  S
Fe69         O70   2.122       .  S
Fe69        O599   2.081       .  S
Fe69        O593   2.089       .  S
Fe69         O78   1.938       .  S
O70          C77   1.281       .  A
O71          C85   1.273       .  A
O72          C77   1.261       .  A
O73        Fe579   2.070       .  S
O73          C76   1.280   1_556  A
O74          C86   1.278       .  A
O75          C88   1.262       .  A
C76          O81   1.275       .  A
C76         C402   1.474       .  S
C77         C262   1.502       .  S
O79          C82   1.278       .  A
O80          C82   1.280       .  A
O81        Fe581   2.083   1_554  S
C82         C391   1.490       .  S
O83          C88   1.259       .  A
O84          C86   1.268       .  A
C85         O599   1.275       .  A
C85         C788   1.485       .  S
C86         C321   1.483       .  S
O87        Fe581   2.091       .  S
O87         C597   1.278       .  A
C88         C461   1.482       .  S
Fe89        O105   2.057       .  S
Fe89         O95   2.051       .  S
Fe89        O102   2.061       .  S
Fe89        O606   2.069       .  S
Fe89        O100   1.944       .  S
Fe90         O93   2.059       .  S
Fe90         O97   2.084       .  S
Fe90        O101   2.081       .  S
Fe90        O106   2.052       .  S
Fe90        O100   1.926       .  S
Fe91        O109   2.085       .  S
Fe91         O96   2.095       .  S
Fe91        O103   2.108       .  S
Fe91        O604   2.064       .  S
Fe91        O100   1.947       .  S
O92        Fe603   2.075       .  S
O92          C99   1.274       .  A
O93         C107   1.269       .  A
O94        Fe601   2.080       .  S
O94          C99   1.279       .  A
O95          C98   1.265       .  A
O96         C108   1.279       .  A
O97         C110   1.280       .  A
C98         O103   1.281       .  A
C98         C433   1.497       .  S
C99         C349   1.480       .  S
O101        C104   1.264       .  A
O102        C104   1.260       .  A
C104        C279   1.496       .  S
O105        C110   1.278       .  A
O106        C108   1.271       .  A
C107        O109   1.271       .  A
C107        C251   1.474       .  S
C108        C234   1.486       .  S
C110        C335   1.483       .  S
Fe111       O127   2.064       .  S
Fe111       O117   2.048       .  S
Fe111       O124   2.058       .  S
Fe111       O116   2.071       .  S
Fe111       O122   1.942       .  S
Fe112       O115   2.049       .  S
Fe112       O119   2.086       .  S
Fe112       O123   2.071       .  S
Fe112       O128   2.058       .  S
Fe112       O122   1.927       .  S
Fe113       O131   2.090       .  S
Fe113       O118   2.093       .  S
Fe113       O125   2.113       .  S
Fe113       O114   2.075       .  S
Fe113       O122   1.949       .  S
O114        C121   1.273       .  A
O115        C129   1.267       .  A
O116        C121   1.279       .  A
O117        C120   1.261       .  A
O118        C130   1.278       .  A
O119        C132   1.282       .  A
C120        O125   1.279       .  A
C120        C363   1.500       .  S
C121        C206   1.470       .  S
O123        C126   1.262       .  A
O124        C126   1.257       .  A
C126        C195   1.491       .  S
O127        C132   1.280       .  A
O128        C130   1.272       .  A
C129        O131   1.273       .  A
C129        C248   1.475       .  S
C130        C304   1.484       .  S
C132        C223   1.478       .  S
Fe133       O149   2.056       .  S
Fe133       O146   2.060       .  S
Fe133       O138   2.044       .  S
Fe133       O651   2.074       .  S
Fe133       O144   1.944       .  S
Fe134       O137   2.063       .  S
Fe134       O141   2.049       .  S
Fe134       O145   2.085       .  S
Fe134       O150   2.040       .  S
Fe134       O144   1.925       .  S
Fe135       O140   2.096       .  S
Fe135       O136   2.108       .  S
Fe135       O665   2.086       .  S
Fe135       O659   2.070       .  S
Fe135       O144   1.948       .  S
O136        C143   1.279       .  A
O137        C151   1.272       .  A
O138        C143   1.262       .  A
O139       Fe645   2.073       .  S
O139        C142   1.281   1_556  A
O140        C152   1.275       .  A
O141        C154   1.260       .  A
C142        O147   1.277   1_554  A
C142        C220   1.490       .  S
C143        C265   1.494       .  S
O145        C148   1.280       .  A
O146        C148   1.280       .  A
O147       Fe647   2.080       .  S
C148        C209   1.486       .  S
O149        C154   1.256       .  A
O150        C152   1.267       .  A
C151        O665   1.275       .  A
C151        C959   1.488       .  S
C152        C178   1.475       .  S
O153       Fe647   2.080       .  S
O153        C663   1.275       .  A
C154        C237   1.479       .  S
Fe155       O171   2.065       .  S
Fe155       O161   2.075       .  S
Fe155       O168   2.060       .  S
Fe155       O160   2.054       .  S
Fe155       O166   1.934       .  S
Fe156       O159   2.060       .  S
Fe156       O163   2.080       .  S
Fe156       O167   2.079       .  S
Fe156       O172   2.064       .  S
Fe156       O166   1.925       .  S
Fe157       O175   2.090       .  S
Fe157       O162   2.084       .  S
Fe157       O169   2.066       .  S
Fe157       O158   2.110       .  S
Fe157       O166   1.940       .  S
O158        C165   1.281       .  A
O159        C173   1.272       .  A
O160        C165   1.265       .  A
O161        C164   1.276       .  A
O162        C174   1.271       .  A
O163        C176   1.266       .  A
C164        O169   1.268       .  A
C164        C503   1.465       .  S
C165        C293   1.497       .  S
O167        C170   1.278       .  A
O168        C170   1.277       .  A
C170        C486   1.487       .  S
O171        C176   1.261       .  A
O172        C174   1.269       .  A
C173        O175   1.279       .  A
C173        C192   1.488       .  S
C174        C181   1.473       .  S
C176        C419   1.497       .  S
C177        C178   1.408       .  A
C177        C182   1.406       .  A
C177        H184   1.084       .  S
C178        C179   1.408       .  A
C179        C180   1.401       .  A
C179        N186   1.433       .  S
C180        C181   1.403       .  A
C180        H185   1.085       .  S
C181        C182   1.410       .  A
C182        N183   1.432       .  S
N183        H187   1.046       .  S
N183        H188   1.045       .  S
N186        H189   1.047       .  S
N186        H190   1.045       .  S
C191        C192   1.402       .  A
C191        C196   1.409       .  A
C191        H198   1.083       .  S
C192        C193   1.415       .  A
C193        C194   1.402       .  A
C193        N200   1.433       .  S
C194        C195   1.403       .  A
C194        H199   1.084       .  S
C195        C196   1.419       .  A
C196        N197   1.438       .  S
N197        H201   1.046       .  S
N197        H202   1.046       .  S
N200        H203   1.046       .  S
N200        H204   1.046       .  S
C205        C206   1.401       .  A
C205        C210   1.402       .  A
C205        H212   1.085       .  S
C206        C207   1.412       .  A
C207        C208   1.398       .  A
C207        N214   1.433       .  S
C208        C209   1.407       .  A
C208        H213   1.084       .  S
C209        C210   1.416       .  A
C210        N211   1.433       .  S
N211        H215   1.046       .  S
N211        H216   1.046       .  S
N214        H217   1.045       .  S
N214        H218   1.045       .  S
C219        C220   1.413       .  A
C219        C224   1.404       .  A
C219        H226   1.083       .  S
C220        C221   1.411       .  A
C221        C222   1.403       .  A
C221        N228   1.432       .  S
C222        C223   1.406       .  A
C222        H227   1.084       .  S
C223        C224   1.404       .  A
C224        N225   1.432       .  S
N225        H229   1.045       .  S
N225        H230   1.046       .  S
N228        H231   1.045       .  S
N228        H232   1.045       .  S
C233        C234   1.402   1_556  A
C233        C238   1.407       .  A
C233        H240   1.083       .  S
C234        C747   1.415       .  A
C235        C236   1.394       .  A
C235        C746   1.416       .  A
C235        N242   1.432       .  S
C236        C237   1.399       .  A
C236        H241   1.084       .  S
C237        C750   1.414       .  A
C238        C749   1.417       .  A
C238        N239   1.432       .  S
N239        H243   1.045       .  S
N239        H244   1.046       .  S
N242        H245   1.046       .  S
N242        H246   1.044       .  S
C247        C248   1.401       .  A
C247        C252   1.404       .  A
C247        H254   1.082       .  S
C248        C249   1.411       .  A
C249        C250   1.407       .  A
C249        N256   1.432       .  S
C250        C251   1.401       .  A
C250        H255   1.083       .  S
C251        C252   1.410       .  A
C252        N253   1.433       .  S
N253        H257   1.045       .  S
N253        H258   1.046       .  S
N256        H259   1.046       .  S
N256        H260   1.045       .  S
C261        C262   1.419       .  A
C261        C266   1.406       .  A
C261        H268   1.083       .  S
C262        C263   1.405       .  A
C263        C264   1.410   1_655  A
C263        N270   1.431       .  S
C264        C265   1.417       .  A
C264        H269   1.084       .  S
C265        C266   1.402   1_455  A
C266        N267   1.432   1_655  S
N267        H271   1.046   1_455  S
N267        H272   1.046   1_455  S
N270        H273   1.046       .  S
N270        H274   1.045       .  S
C275        C276   1.405       .  A
C275        C280   1.407       .  A
C275        H282   1.084       .  S
C276        C597   1.483   1_554  S
C276        C277   1.405       .  A
C277        C278   1.406       .  A
C277        N284   1.432       .  S
C278        C279   1.412       .  A
C278        H283   1.083       .  S
C279        C280   1.412       .  A
C280        N281   1.431       .  S
N281        H285   1.044       .  S
N281        H286   1.045       .  S
N284        H287   1.046       .  S
N284        H288   1.045       .  S
C289        C290   1.419       .  A
C289        C294   1.407   1_545  A
C289        H296   1.083       .  S
C290        C291   1.404   1_545  A
C291        C292   1.410       .  A
C291        N298   1.431   1_565  S
C292        C293   1.417       .  A
C292        H297   1.084       .  S
C293        C294   1.403       .  A
C294        N295   1.432       .  S
N295        H299   1.046       .  S
N295        H300   1.046       .  S
N298        H301   1.046   1_545  S
N298        H302   1.046       .  S
C303        C304   1.405       .  A
C303        C308   1.403       .  A
C303        H310   1.084       .  S
C304        C305   1.407       .  A
C305        C306   1.408       .  A
C305        N312   1.432       .  S
C306        C307   1.412       .  A
C306        H311   1.083       .  S
C307        C308   1.411       .  A
C308        N309   1.431       .  S
N309        H313   1.045       .  S
N309        H314   1.045       .  S
N312        H315   1.046       .  S
N312        H316   1.045       .  S
C317        C318   1.406       .  A
C317        C322   1.407       .  A
C317        H324   1.085       .  S
C318        C319   1.408       .  A
C319        C320   1.413       .  A
C319        N326   1.437       .  S
C320        C321   1.408       .  A
C320        H325   1.084       .  S
C321        C322   1.408       .  A
C322        N323   1.433       .  S
N323        H327   1.046       .  S
N323        H328   1.046       .  S
N326        H329   1.046       .  S
N326        H330   1.045       .  S
C331        C332   1.404       .  A
C331        C336   1.402       .  A
C331        H338   1.084       .  S
C332        C333   1.426       .  A
C333        C334   1.397       .  A
C333        N340   1.433       .  S
C334        C335   1.400       .  A
C334        H339   1.084       .  S
C335        C336   1.414       .  A
C336        N337   1.432       .  S
N337        H341   1.045       .  S
N337        H342   1.045       .  S
N340        H343   1.045       .  S
N340        H344   1.045       .  S
C345        C346   1.412       .  A
C345        C350   1.406       .  A
C345        H352   1.083       .  S
C346        C347   1.414       .  A
C347        C348   1.402       .  A
C347        N354   1.433       .  S
C348        C349   1.405       .  A
C348        H353   1.084       .  S
C349        C350   1.407       .  A
C350        N351   1.433       .  S
N351        H355   1.045       .  S
N351        H356   1.046       .  S
N354        H357   1.045       .  S
N354        H358   1.046       .  S
C359        C360   1.398       .  A
C359        C364   1.410   1_655  A
C359        H366   1.083       .  S
C360        C361   1.424       .  A
C361        C362   1.407       .  A
C361        N368   1.433       .  S
C362        C363   1.398   1_655  A
C362        H367   1.084   1_655  S
C363        C364   1.425       .  A
C364        N365   1.433       .  S
N365        H369   1.045       .  S
N365        H370   1.047       .  S
N368        H371   1.046       .  S
N368        H372   1.046       .  S
C373        C374   1.403       .  A
C373        C378   1.397       .  A
C373        H380   1.084       .  S
C374        C375   1.418       .  A
C375        C376   1.408       .  A
C375        N382   1.432       .  S
C376        C377   1.403       .  A
C376        H381   1.084       .  S
C377        C378   1.411       .  A
C378        N379   1.432       .  S
N379        H383   1.045       .  S
N379        H384   1.046       .  S
N382        H385   1.046       .  S
N382        H386   1.045       .  S
C387        C388   1.398       .  A
C387        C392   1.401       .  A
C387        H394   1.085       .  S
C388        C389   1.407       .  A
C389        C390   1.404       .  A
C389        N396   1.432       .  S
C390        C391   1.408       .  A
C390        H395   1.084       .  S
C391        C392   1.419       .  A
C392        N393   1.433       .  S
N393        H397   1.045       .  S
N393        H398   1.046       .  S
N396        H399   1.045       .  S
N396        H400   1.046       .  S
C401        C402   1.404       .  A
C401        C406   1.405       .  A
C401        H408   1.084       .  S
C402        C403   1.405       .  A
C403        C404   1.399       .  A
C403        N410   1.433       .  S
C404        C405   1.410       .  A
C404        H409   1.083       .  S
C405        C406   1.415       .  A
C406        N407   1.433       .  S
N407        H411   1.046       .  S
N407        H412   1.046       .  S
N410        H413   1.045       .  S
N410        H414   1.046       .  S
C415        C416   1.402       .  A
C415        C420   1.406       .  A
C415        H422   1.084       .  S
C416        C417   1.416       .  A
C417        C418   1.407       .  A
C417        N424   1.433       .  S
C418        C419   1.405       .  A
C418        H423   1.083       .  S
C419        C420   1.419       .  A
C420        N421   1.432       .  S
N421        H425   1.046       .  S
N421        H426   1.046       .  S
N424        H427   1.045       .  S
N424        H428   1.046       .  S
C429        C430   1.419       .  A
C429        C434   1.406   1_565  A
C429        H436   1.083       .  S
C430        C431   1.405       .  A
C431        C432   1.409   1_565  A
C431        N438   1.431       .  S
C432        C433   1.417       .  A
C432        H437   1.084       .  S
C433        C434   1.403       .  A
C434        N435   1.432       .  S
N435        H439   1.046       .  S
N435        H440   1.045       .  S
N438        H441   1.046       .  S
N438        H442   1.045       .  S
C443        C444   1.410       .  A
C443        C448   1.401       .  A
C443        H450   1.083       .  S
C444        C957   1.410       .  A
C445        C446   1.403       .  A
C445        C956   1.413       .  A
C445        N452   1.432       .  S
C446        C959   1.406       .  A
C446        H451   1.084       .  S
C447        C663   1.472   1_554  S
C447        C448   1.403       .  A
C447        C958   1.404       .  A
C448        N449   1.432       .  S
N449        H453   1.045   1_554  S
N449        H454   1.046       .  S
N452        H455   1.045       .  S
N452        H456   1.046       .  S
C457        C462   1.406       .  A
C457        C970   1.406       .  A
C457        H464   1.083       .  S
C458        C459   1.413       .  A
C458        C969   1.402   1_554  A
C459        C460   1.398   1_554  A
C459        N466   1.432       .  S
C460        C973   1.402       .  A
C460        H465   1.084       .  S
C461        C462   1.413       .  A
C461        C972   1.400       .  A
C462        N463   1.432       .  S
N463        H467   1.046       .  S
N463        H468   1.046       .  S
N466        H469   1.046       .  S
N466        H470   1.045       .  S
C471        C472   1.407       .  A
C471        C476   1.409       .  A
C471        H478   1.084       .  S
C472        C473   1.410       .  A
C473        C474   1.411       .  A
C473        N480   1.438       .  S
C474        C475   1.407       .  A
C474        H479   1.084       .  S
C475        C476   1.406       .  A
C476        N477   1.432       .  S
N477        H481   1.045       .  S
N477        H482   1.046       .  S
N480        H483   1.046       .  S
N480        H484   1.045       .  S
C485        C486   1.410       .  A
C485        C490   1.405       .  A
C485        H492   1.083       .  S
C486        C487   1.411       .  A
C487        C488   1.401       .  A
C487        N494   1.433       .  S
C488        C489   1.406       .  A
C488        H493   1.084       .  S
C489        C490   1.411       .  A
C490        N491   1.439       .  S
N491        H495   1.046       .  S
N491        H496   1.045       .  S
N494        H497   1.046       .  S
N494        H498   1.046       .  S
C499        C500   1.407       .  A
C499        C504   1.402       .  A
C499        H506   1.083       .  S
C500        C501   1.416       .  A
C501        C502   1.401       .  A
C501        N508   1.433       .  S
C502        C503   1.399       .  A
C502        H507   1.085       .  S
C503        C504   1.408       .  A
C504        N505   1.438       .  S
N505        H509   1.046       .  S
N505        H510   1.046       .  S
N508        H511   1.046       .  S
N508        H512   1.045       .  S
Fe513       O529   2.068       .  S
Fe513       O519   2.057       .  S
Fe513       O526   2.075       .  S
Fe513       O524   1.936       .  S
Fe514       O517   2.055       .  S
Fe514       O521   2.074       .  S
Fe514       O525   2.067       .  S
Fe514       O530   2.055       .  S
Fe514       O524   1.930       .  S
Fe515       O533   2.099       .  S
Fe515       O520   2.086       .  S
Fe515       O527   2.116       .  S
Fe515       O524   1.942       .  S
O516        C523   1.274       .  A
O517        C531   1.270       .  A
O518        C523   1.278       .  A
O519        C522   1.266       .  A
O520        C532   1.276       .  A
O521        C534   1.274       .  A
C522        O527   1.282       .  A
C522        C942   1.511       .  S
C523       C1001   1.475   1_554  S
O525        C528   1.264       .  A
O526        C528   1.264       .  A
C528        C956   1.494       .  S
O529        C534   1.278       .  A
O530        C532   1.269       .  A
C531        O533   1.277       .  A
C531        C987   1.478       .  S
C532        C970   1.491       .  S
C534       C1012   1.489       .  S
Fe535       O551   2.072       .  S
Fe535       O541   2.059       .  S
Fe535       O548   2.074       .  S
Fe535       O540   2.082       .  S
Fe535       O546   1.939       .  S
Fe536       O539   2.052       .  S
Fe536       O543   2.090       .  S
Fe536       O547   2.063       .  S
Fe536       O552   2.081       .  S
Fe536       O546   1.920       .  S
Fe537       O555   2.094       .  S
Fe537       O542   2.083       .  S
Fe537       O549   2.099       .  S
Fe537       O538   2.074       .  S
Fe537       O546   1.938       .  S
O538        C545   1.270       .  A
O539        C553   1.266       .  A
O540        C545   1.277       .  A
O541        C544   1.266       .  A
O542        C554   1.277       .  A
O543        C556   1.280       .  A
C544        O549   1.280       .  A
C544        C872   1.492       .  S
C545        C900   1.474       .  S
O547        C550   1.264       .  A
O548        C550   1.263       .  A
C550        C886   1.486       .  S
O551        C556   1.277       .  A
O552        C554   1.276       .  A
C553        O555   1.274       .  A
C553        C984   1.476       .  S
C554        C928   1.496       .  S
C556        C917   1.500       .  S
Fe557       O573   2.060       .  S
Fe557       O563   2.070       .  S
Fe557       O570   2.051       .  S
Fe557       O562   2.051       .  S
Fe557       O568   1.939       .  S
Fe558       O561   2.065       .  S
Fe558       O565   2.057       .  S
Fe558       O569   2.078       .  S
Fe558       O574   2.056       .  S
Fe558       O568   1.921       .  S
Fe559       O577   2.083       .  S
Fe559       O564   2.102       .  S
Fe559       O571   2.074       .  S
Fe559       O560   2.119       .  S
Fe559       O568   1.932       .  S
O560        C567   1.283       .  A
O561        C575   1.272       .  A
O562        C567   1.263       .  A
O563        C566   1.277       .  A
O564        C576   1.277       .  A
O565        C578   1.262       .  A
C566        O571   1.274       .  A
C566        C844   1.480       .  S
C567        C802   1.501       .  S
O569        C572   1.278       .  A
O570        C572   1.276       .  A
C572        C858   1.482       .  S
O573        C578   1.260       .  A
O574        C576   1.269       .  A
C575        O577   1.277       .  A
C575        C889   1.493       .  S
C576        C830   1.482       .  S
C578        C819   1.483       .  S
Fe579       O595   2.062       .  S
Fe579       O592   2.065       .  S
Fe579       O584   2.044       .  S
Fe579       O590   1.939       .  S
Fe580       O583   2.065       .  S
Fe580       O587   2.062       .  S
Fe580       O591   2.087       .  S
Fe580       O596   2.053       .  S
Fe580       O590   1.924       .  S
Fe581       O586   2.097       .  S
Fe581       O582   2.125       .  S
Fe581       O590   1.940       .  S
O582        C589   1.282       .  A
O583        C597   1.273       .  A
O584        C589   1.260       .  A
O585        C588   1.281       .  A
O586        C598   1.276       .  A
O587        C600   1.262       .  A
C588        O593   1.277       .  A
C588        C914   1.484       .  S
C589        C774   1.502       .  S
O591        C594   1.279       .  A
O592        C594   1.280       .  A
C594        C903   1.491       .  S
O595        C600   1.258       .  A
O596        C598   1.268       .  A
C598        C833   1.478       .  S
C600        C973   1.487       .  S
Fe601       O617   2.062       .  S
Fe601       O607   2.060       .  S
Fe601       O614   2.066       .  S
Fe601       O612   1.940       .  S
Fe602       O605   2.062       .  S
Fe602       O609   2.077       .  S
Fe602       O613   2.075       .  S
Fe602       O618   2.046       .  S
Fe602       O612   1.931       .  S
Fe603       O621   2.102       .  S
Fe603       O608   2.083       .  S
Fe603       O615   2.113       .  S
Fe603       O612   1.939       .  S
O604        C611   1.268       .  A
O605        C619   1.271       .  A
O606        C611   1.275       .  A
O607        C610   1.265       .  A
O608        C620   1.276       .  A
O609        C622   1.277       .  A
C610        O615   1.281       .  A
C610        C945   1.511       .  S
C611        C861   1.466   1_554  S
O613        C616   1.264       .  A
O614        C616   1.261       .  A
C616        C791   1.494       .  S
O617        C622   1.278       .  A
O618        C620   1.268       .  A
C619        O621   1.277       .  A
C619        C763   1.484       .  S
C620        C746   1.484       .  S
C622        C847   1.487       .  S
Fe623       O639   2.057       .  S
Fe623       O629   2.042       .  S
Fe623       O636   2.064       .  S
Fe623       O628   2.066       .  S
Fe623       O634   1.936       .  S
Fe624       O627   2.053       .  S
Fe624       O631   2.083       .  S
Fe624       O635   2.075       .  S
Fe624       O640   2.052       .  S
Fe624       O634   1.925       .  S
Fe625       O643   2.106       .  S
Fe625       O630   2.071       .  S
Fe625       O637   2.107       .  S
Fe625       O626   2.077       .  S
Fe625       O634   1.947       .  S
O626        C633   1.272       .  A
O627        C641   1.268       .  A
O628        C633   1.278       .  A
O629        C632   1.261       .  A
O630        C642   1.272       .  A
O631        C644   1.280       .  A
C632        O637   1.280       .  A
C632        C875   1.500       .  S
C633        C718   1.475       .  S
O635        C638   1.264       .  A
O636        C638   1.259       .  A
C638        C707   1.492       .  S
O639        C644   1.278       .  A
O640        C642   1.272       .  A
C641        O643   1.278       .  A
C641        C760   1.482       .  S
C642        C816   1.480       .  S
C644        C735   1.481       .  S
Fe645       O661   2.063       .  S
Fe645       O658   2.064       .  S
Fe645       O650   2.043       .  S
Fe645       O656   1.937       .  S
Fe646       O649   2.051       .  S
Fe646       O653   2.061       .  S
Fe646       O657   2.078       .  S
Fe646       O662   2.055       .  S
Fe646       O656   1.926       .  S
Fe647       O652   2.100       .  S
Fe647       O648   2.121       .  S
Fe647       O656   1.943       .  S
O648        C655   1.280       .  A
O649        C663   1.270       .  A
O650        C655   1.259       .  A
O651        C654   1.278       .  A
O652        C664   1.277       .  A
O653        C666   1.261       .  A
C654        O659   1.273       .  A
C654        C732   1.485       .  S
C655        C777   1.501       .  S
O657        C660   1.276       .  A
O658        C660   1.281       .  A
C660        C721   1.490       .  S
O661        C666   1.258       .  A
O662        C664   1.269       .  A
C664        C690   1.481       .  S
C666        C749   1.487       .  S
Fe667       O683   2.070       .  S
Fe667       O673   2.075       .  S
Fe667       O680   2.069       .  S
Fe667       O672   2.048       .  S
Fe667       O678   1.938       .  S
Fe668       O671   2.059       .  S
Fe668       O675   2.074       .  S
Fe668       O679   2.082       .  S
Fe668       O684   2.062       .  S
Fe668       O678   1.925       .  S
Fe669       O687   2.096       .  S
Fe669       O674   2.099       .  S
Fe669       O681   2.075       .  S
Fe669       O670   2.125       .  S
Fe669       O678   1.937       .  S
O670        C677   1.284       .  A
O671        C685   1.271       .  A
O672        C677   1.262       .  A
O673        C676   1.279       .  A
O674        C686   1.276       .  A
O675        C688   1.264       .  A
C676        O681   1.272       .  A
C676       C1015   1.470       .  S
C677        C805   1.506       .  S
O679        C682   1.279       .  A
O680        C682   1.278       .  A
C682        C998   1.493       .  S
O683        C688   1.261       .  A
O684        C686   1.270       .  A
C685        O687   1.280       .  A
C685        C704   1.493       .  S
C686        C693   1.482       .  S
C688        C931   1.494       .  S
C689        C690   1.408       .  A
C689        C694   1.413       .  A
C689        H696   1.084       .  S
C690        C691   1.407       .  A
C691        C692   1.407       .  A
C691        N698   1.432       .  S
C692        C693   1.406       .  A
C692        H697   1.084       .  S
C693        C694   1.409       .  A
C694        N695   1.437       .  S
N695        H699   1.045       .  S
N695        H700   1.046       .  S
N698        H701   1.046       .  S
N698        H702   1.045       .  S
C703        C704   1.403       .  A
C703        C708   1.407       .  A
C703        H710   1.083       .  S
C704        C705   1.418       .  A
C705        C706   1.404       .  A
C705        N712   1.433       .  S
C706        C707   1.403       .  A
C706        H711   1.084       .  S
C707        C708   1.417       .  A
C708        N709   1.432       .  S
N709        H713   1.046       .  S
N709        H714   1.046       .  S
N712        H715   1.046       .  S
N712        H716   1.046       .  S
C717        C718   1.399       .  A
C717        C722   1.395       .  A
C717        H724   1.085       .  S
C718        C719   1.416       .  A
C719        C720   1.398       .  A
C719        N726   1.433       .  S
C720        C721   1.407       .  A
C720        H725   1.084       .  S
C721        C722   1.426       .  A
C722        N723   1.433       .  S
N723        H727   1.046       .  S
N723        H728   1.043       .  S
N726        H729   1.043       .  S
N726        H730   1.046       .  S
C731        C732   1.410       .  A
C731        C736   1.401       .  A
C731        H738   1.083       .  S
C732        C733   1.411       .  A
C733        C734   1.402       .  A
C733        N740   1.433       .  S
C734        C735   1.408       .  A
C734        H739   1.084       .  S
C735        C736   1.407       .  A
C736        N737   1.433       .  S
N737        H741   1.046       .  S
N737        H742   1.046       .  S
N740        H743   1.045       .  S
N740        H744   1.046       .  S
C745        C746   1.405       .  A
C745        C750   1.405       .  A
C745        H752   1.084       .  S
C747        C748   1.399   1_554  A
C747        N754   1.432       .  S
C748        C749   1.401       .  A
C748        H753   1.084       .  S
C750        N751   1.432       .  S
N751        H755   1.046       .  S
N751        H756   1.045       .  S
N754        H757   1.046       .  S
N754        H758   1.045       .  S
C759        C760   1.403       .  A
C759        C764   1.408       .  A
C759        H766   1.084       .  S
C760        C761   1.413       .  A
C761        C762   1.410       .  A
C761        N768   1.433       .  S
C762        C763   1.402       .  A
C762        H767   1.084       .  S
C763        C764   1.413       .  A
C764        N765   1.433       .  S
N765        H769   1.045       .  S
N765        H770   1.046       .  S
N768        H771   1.046       .  S
N768        H772   1.046       .  S
C773        C774   1.398       .  A
C773        C778   1.410   1_655  A
C773        H780   1.084       .  S
C774        C775   1.427       .  A
C775        C776   1.409       .  A
C775        N782   1.433       .  S
C776        C777   1.397   1_655  A
C776        H781   1.084   1_655  S
C777        C778   1.426       .  A
C778        N779   1.433       .  S
N779        H783   1.046       .  S
N779        H784   1.045       .  S
N782        H785   1.045       .  S
N782        H786   1.046       .  S
C787        C788   1.405       .  A
C787        C792   1.401       .  A
C787        H794   1.084       .  S
C788        C789   1.408       .  A
C789        C790   1.407       .  A
C789        N796   1.432       .  S
C790        C791   1.411       .  A
C790        H795   1.083       .  S
C791        C792   1.412       .  A
C792        N793   1.430       .  S
N793        H797   1.045       .  S
N793        H798   1.046       .  S
N796        H799   1.046       .  S
N796        H800   1.045       .  S
C801        C802   1.396       .  A
C801        C806   1.409   1_545  A
C801        H808   1.084       .  S
C802        C803   1.425       .  A
C803        C804   1.411   1_545  A
C803        N810   1.433       .  S
C804        C805   1.399       .  A
C804        H809   1.083       .  S
C805        C806   1.429       .  A
C806        N807   1.433       .  S
N807        H811   1.046       .  S
N807        H812   1.046       .  S
N810        H813   1.046       .  S
N810        H814   1.045       .  S
C815        C816   1.405       .  A
C815        C820   1.395       .  A
C815        H822   1.084       .  S
C816        C817   1.415       .  A
C817        C818   1.400       .  A
C817        N824   1.432       .  S
C818        C819   1.410       .  A
C818        H823   1.084       .  S
C819        C820   1.410       .  A
C820        N821   1.432       .  S
N821        H825   1.046       .  S
N821        H826   1.046       .  S
N824        H827   1.045       .  S
N824        H828   1.045       .  S
C829        C830   1.408       .  A
C829        C834   1.409       .  A
C829        H836   1.084       .  S
C830        C831   1.407       .  A
C831        C832   1.408       .  A
C831        N838   1.432       .  S
C832        C833   1.407       .  A
C832        H837   1.084       .  S
C833        C834   1.407       .  A
C834        N835   1.432       .  S
N835        H839   1.046       .  S
N835        H840   1.045       .  S
N838        H841   1.046       .  S
N838        H842   1.045       .  S
C843        C844   1.406       .  A
C843        C848   1.400       .  A
C843        H850   1.084       .  S
C844        C845   1.415       .  A
C845        C846   1.399       .  A
C845        N852   1.433       .  S
C846        C847   1.411       .  A
C846        H851   1.084       .  S
C847        C848   1.410       .  A
C848        N849   1.432       .  S
N849        H853   1.045       .  S
N849        H854   1.046       .  S
N852        H855   1.045       .  S
N852        H856   1.045       .  S
C857        C858   1.410       .  A
C857        C862   1.398       .  A
C857        H864   1.083       .  S
C858        C859   1.414       .  A
C859        C860   1.399       .  A
C859        N866   1.433       .  S
C860        C861   1.402       .  A
C860        H865   1.084       .  S
C861        C862   1.405       .  A
C862        N863   1.434       .  S
N863        H867   1.046       .  S
N863        H868   1.045       .  S
N866        H869   1.046       .  S
N866        H870   1.046       .  S
C871        C872   1.395       .  A
C871        C876   1.407   1_655  A
C871        H878   1.084       .  S
C872        C873   1.420       .  A
C873        C874   1.408       .  A
C873        N880   1.433       .  S
C874        C875   1.400   1_655  A
C874        H879   1.083   1_655  S
C875        C876   1.431       .  A
C876        N877   1.439       .  S
N877        H881   1.045       .  S
N877        H882   1.046       .  S
N880        H883   1.045       .  S
N880        H884   1.046       .  S
C885        C886   1.400       .  A
C885        C890   1.399       .  A
C885        H892   1.080       .  S
C886        C887   1.412       .  A
C887        C888   1.408       .  A
C887        N894   1.432       .  S
C888        C889   1.408       .  A
C888        H893   1.083       .  S
C889        C890   1.417       .  A
C890        N891   1.433       .  S
N891        H895   1.045       .  S
N891        H896   1.046       .  S
N894        H897   1.046       .  S
N894        H898   1.046       .  S
C899        C900   1.400       .  A
C899        C904   1.404       .  A
C899        H906   1.085       .  S
C900        C901   1.407       .  A
C901        C902   1.403       .  A
C901        N908   1.432       .  S
C902        C903   1.408       .  A
C902        H907   1.084       .  S
C903        C904   1.418       .  A
C904        N905   1.433       .  S
N905        H909   1.045       .  S
N905        H910   1.046       .  S
N908        H911   1.046       .  S
N908        H912   1.045       .  S
C913        C914   1.405       .  A
C913        C918   1.413       .  A
C913        H920   1.084       .  S
C914        C915   1.406       .  A
C915        C916   1.402       .  A
C915        N922   1.432       .  S
C916        C917   1.410       .  A
C916        H921   1.083       .  S
C917        C918   1.421       .  A
C918        N919   1.437       .  S
N919        H923   1.046       .  S
N919        H924   1.045       .  S
N922        H925   1.046       .  S
N922        H926   1.046       .  S
C927        C928   1.406       .  A
C927        C932   1.408       .  A
C927        H934   1.084       .  S
C928        C929   1.418       .  A
C929        C930   1.406       .  A
C929        N936   1.437       .  S
C930        C931   1.404       .  A
C930        H935   1.083       .  S
C931        C932   1.415       .  A
C932        N933   1.432       .  S
N933        H937   1.046       .  S
N933        H938   1.046       .  S
N936        H939   1.046       .  S
N936        H940   1.043       .  S
C941        C942   1.418       .  A
C941        C946   1.406   1_565  A
C941        H948   1.083       .  S
C942        C943   1.413       .  A
C943        C944   1.410   1_565  A
C943        N950   1.432       .  S
C944        C945   1.420       .  A
C944        H949   1.083       .  S
C945        C946   1.412       .  A
C946        N947   1.432       .  S
N947        H951   1.045       .  S
N947        H952   1.045       .  S
N950        H953   1.045       .  S
N950        H954   1.045       .  S
C955        C956   1.410       .  A
C955        C960   1.407       .  A
C955        H962   1.083       .  S
C957        C958   1.403       .  A
C957        N964   1.431       .  S
C958        H963   1.084       .  S
C959        C960   1.409       .  A
C960        N961   1.432       .  S
N961        H965   1.045       .  S
N961        H966   1.046       .  S
N964        H967   1.044       .  S
N964        H968   1.046       .  S
C969        C974   1.406       .  A
C969        H976   1.084       .  S
C970        C971   1.419       .  A
C971        C972   1.399       .  A
C971        N978   1.433       .  S
C972        H977   1.084       .  S
C973        C974   1.417       .  A
C974        N975   1.432       .  S
N975        H979   1.046       .  S
N975        H980   1.045       .  S
N978        H981   1.046       .  S
N978        H982   1.045       .  S
C983        C984   1.405       .  A
C983        C988   1.406       .  A
C983        H990   1.084       .  S
C984        C985   1.407       .  A
C985        C986   1.407       .  A
C985        N992   1.433       .  S
C986        C987   1.407       .  A
C986        H991   1.084       .  S
C987        C988   1.407       .  A
C988        N989   1.432       .  S
N989        H993   1.045       .  S
N989        H994   1.046       .  S
N992        H995   1.045       .  S
N992        H996   1.046       .  S
C997        C998   1.410       .  A
C997       C1002   1.401       .  A
C997       H1004   1.083       .  S
C998        C999   1.417       .  A
C999       C1000   1.407       .  A
C999       N1006   1.433       .  S
C1000      C1001   1.404       .  A
C1000      H1005   1.084       .  S
C1001      C1002   1.406       .  A
C1002      N1003   1.434       .  S
N1003      H1007   1.046       .  S
N1003      H1008   1.045       .  S
N1006      H1009   1.045       .  S
N1006      H1010   1.046       .  S
C1011      C1012   1.407       .  A
C1011      C1016   1.405       .  A
C1011      H1018   1.083       .  S
C1012      C1013   1.419       .  A
C1013      C1014   1.401       .  A
C1013      N1020   1.433       .  S
C1014      C1015   1.398       .  A
C1014      H1019   1.085       .  S
C1015      C1016   1.410       .  A
C1016      N1017   1.438       .  S
N1017      H1021   1.045       .  S
N1017      H1022   1.046       .  S
N1020      H1023   1.047       .  S
N1020      H1024   1.045       .  S
