geometry optimzed in LAMMPS
_audit_creation_date              2020-12-01 
_audit_creation_method            'lammps2cif' 
_symmetry_space_group_name_H-M    'P1' 
_symmetry_Int_Tables_number       1 
_symmetry_cell_setting            triclinic 
loop_ 
_symmetry_equiv_pos_as_xyz 
  x,y,z 
_cell_length_a                    49.07572369 
_cell_length_b                    48.51369044607569 
_cell_length_c                    29.17886806854174 
_cell_angle_alpha                 90.10884674810256 
_cell_angle_beta                  90.07453044644399 
_cell_angle_gamma                 89.84766675063504 
loop_ 
_atom_site_label 
_atom_site_type_symbol 
_atom_site_fract_x 
_atom_site_fract_y 
_atom_site_fract_z 
_atom_site_charge 
O1          O  0.68285462  0.44567996  0.61689096    -0.82600
C2          C  0.68112677  0.47796298  0.80274834     0.96800
O3          O  0.69348848  0.49055663  0.77106407    -0.71700
O4          O  0.72417129  0.45445380  0.72843572    -0.75300
Al5        Al  0.69857616  0.48121130  0.70767683     1.49000
C6          C  0.72857783  0.43068840  0.71228325     0.92000
O7          O  0.66625848  0.40234899  0.72121864    -0.81500
O8          O  0.61884507  0.46386719  0.68407925    -0.75100
Al9        Al  0.67424108  0.42637375  0.67151940     1.90100
O10         O  0.63205031  0.42562062  0.74914113    -0.74200
O11         O  0.64260450  0.50220982  0.73496274    -0.74000
O12         O  0.66100494  0.46264341  0.79372080    -0.79700
O13         O  0.67583439  0.51107536  0.68726583    -0.77900
O14         O  0.67141504  0.45685404  0.70530535    -1.14000
O15         O  0.71010903  0.47686951  0.64550889    -0.73200
C16         C  0.70111961  0.46359825  0.61152780     0.97500
C17         C  0.64506657  0.40335229  0.74542288     0.93900
Al18       Al  0.64122123  0.46310838  0.73774423     1.55600
O19         O  0.71177546  0.41967931  0.68505949    -0.77800
C20         C  0.65480656  0.51868950  0.70881524     0.98100
C21         C  0.61806404  0.44470745  0.65463714     0.93000
O22         O  0.63706878  0.42711319  0.65148166    -0.83100
O23         O  0.83188177  0.43765341  0.13498023    -0.82600
C24         C  0.78589798  0.47902532  0.29751085     0.96800
O25         O  0.81124389  0.47615647  0.29082901    -0.71700
O26         O  0.82995483  0.42715716  0.26831430    -0.75300
Al27       Al  0.83172944  0.46223370  0.23906346     1.28200
C28         C  0.83032061  0.40450812  0.24721403     0.92000
O29         O  0.76994813  0.41365719  0.19959265    -0.81500
O30         O  0.77674941  0.48523657  0.13631591    -0.75100
Al31       Al  0.80101691  0.42661220  0.16844441     1.90100
O32         O  0.74709807  0.45278960  0.19761069    -0.74200
O33         O  0.79710267  0.51353103  0.20500008    -0.74000
O34         O  0.76957849  0.47953123  0.26433017    -0.79700
O35         O  0.83842013  0.49742689  0.21465171    -0.77900
O36         O  0.80263163  0.45667394  0.20325920    -1.14000
O37         O  0.85758447  0.44914146  0.19423466    -0.73200
C38         C  0.85485332  0.44319831  0.15217189     0.97500
C39         C  0.74784590  0.42686945  0.20373667     0.93900
Al40       Al  0.77508091  0.48082503  0.20115435     1.55600
O41         O  0.82229423  0.40322143  0.20636520    -0.77800
C42         C  0.82256759  0.51696180  0.20522720     0.98100
C43         C  0.77344636  0.46561145  0.10863451     0.93000
O44         O  0.77918755  0.44142044  0.12068071    -0.83100
O45         O  0.94520652  0.18725744  0.43126513    -0.82600
C46         C  0.98044141  0.18291394  0.24772647     0.96800
O47         O  0.99186020  0.19672235  0.27916859    -0.71700
O48         O  0.95429152  0.22764436  0.31809508    -0.75300
Al49       Al  0.98120477  0.20302077  0.34167702     1.49000
C50         C  0.93063122  0.23161273  0.33383614     0.92000
O51         O  0.90532087  0.16758423  0.32466927    -0.81500
O52         O  0.96635270  0.12203469  0.36974684    -0.75100
Al53       Al  0.92737486  0.17707086  0.37589917     1.90100
O54         O  0.92988927  0.13271032  0.30143341    -0.74200
O55         O  0.00479788  0.14632249  0.32014712    -0.74000
O56         O  0.96637091  0.16192794  0.25734232    -0.79700
O57         O  0.01099308  0.18168797  0.36569173    -0.77900
O58         O  0.95824496  0.17460355  0.34436287    -1.14000
O59         O  0.97503286  0.21589223  0.40250014    -0.73200
C60         C  0.96181689  0.20685544  0.43626979     0.97500
C61         C  0.90751606  0.14541439  0.30248313     0.93900
Al62       Al  0.96628404  0.14345174  0.31460588     1.55600
O63         O  0.91994897  0.21444105  0.36073878    -0.77800
C64         C  0.01966097  0.15981130  0.34724475     0.98100
C65         C  0.94608456  0.12085507  0.39645273     0.93000
O66         O  0.92836059  0.13983017  0.39729109    -0.83100
O67         O  0.93623780  0.32959356  0.92032023    -0.82600
C68         C  0.97510372  0.29193814  0.75059327     0.96800
O69         O  0.97014230  0.31695928  0.75967208    -0.71700
O70         O  0.92158942  0.33251375  0.78726874    -0.75300
Al71       Al  0.95711443  0.33501743  0.81442692     1.49000
C72         C  0.89995875  0.33228218  0.81039809     0.92000
O73         O  0.91226376  0.27010112  0.84721198    -0.81500
O74         O  0.98365271  0.27629524  0.91074227    -0.75100
Al75       Al  0.92487236  0.30003287  0.88303351     1.90100
O76         O  0.95176545  0.24808590  0.84578738    -0.74200
O77         O  0.00995272  0.30122246  0.84459199    -0.74000
O78         O  0.97750745  0.27452860  0.78214299    -0.79700
O79         O  0.99244377  0.34250927  0.83662864    -0.77900
O80         O  0.95381720  0.30419115  0.84730840    -1.14000
O81         O  0.94462684  0.35866961  0.86365145    -0.73200
C82         C  0.94074101  0.35373008  0.90589094     0.97500
C83         C  0.92602636  0.24840829  0.84001194     0.93900
Al84       Al  0.97874129  0.27737887  0.84575333     1.55600
O85         O  0.90042263  0.32324769  0.85066366    -0.77800
C86         C  0.01245694  0.32710864  0.84508608     0.98100
C87         C  0.96464569  0.27074974  0.93804623     0.93000
O88         O  0.94044200  0.27562013  0.92658738    -0.83100
O89         O  0.65558100  0.03877909  0.13148239    -0.82600
C90         C  0.69554513  0.99463325  0.29540435     0.96800
O91         O  0.67050631  0.99870645  0.28707106    -0.71700
O92         O  0.65140999  0.04727254  0.26453692    -0.75300
Al93       Al  0.65143824  0.01254774  0.23401742     1.49000
C94         C  0.65175052  0.07028744  0.24491335     0.92000
O95         O  0.71436348  0.06143542  0.20510629    -0.81500
O96         O  0.70884285  0.99122495  0.13548226    -0.75100
Al97       Al  0.68469411  0.04936479  0.16918787     1.90100
O98         O  0.73717273  0.02222791  0.20030588    -0.74200
O99         O  0.68704889  0.96135401  0.20071126    -0.74000
O100        O  0.71280935  0.99407228  0.26367092    -0.79700
O101        O  0.64578740  0.97758412  0.20894353    -0.77900
O102        O  0.68167246  0.01856735  0.20169101    -1.14000
O103        O  0.62739646  0.02522868  0.18593806    -0.73200
C104        C  0.63214815  0.03140465  0.14441329     0.97500
C105        C  0.73639400  0.04799750  0.20826308     0.93900
Al106      Al  0.70907465  0.99420006  0.20031692     1.55600
O107        O  0.66165831  0.07237108  0.20541354    -0.77800
C108        C  0.66159217  0.95802103  0.19998026     0.98100
C109        C  0.71370203  0.01133129  0.10964622     0.93000
O110        O  0.70857200  0.03546697  0.12301951    -0.83100
O111        O  0.79193682  0.03087615  0.61551853    -0.82600
C112        C  0.79879320  0.99782160  0.79923529     0.96800
O113        O  0.78537984  0.98522369  0.76861544    -0.71700
O114        O  0.75265578  0.02081788  0.72926441    -0.75300
Al115      Al  0.77820517  0.99467949  0.70594424     1.49000
C116        C  0.74709070  0.04413995  0.71252189     0.92000
O117        O  0.80862453  0.07376133  0.72075720    -0.81500
O118        O  0.85628243  0.01341435  0.67470202    -0.75100
Al119      Al  0.80046607  0.05021678  0.66989897     1.90100
O120        O  0.84494962  0.05106934  0.74215490    -0.74200
O121        O  0.83548722  0.97411812  0.72729041    -0.74000
O122        O  0.81866170  0.01307149  0.78865744    -0.79700
O123        O  0.80067279  0.96536782  0.68274090    -0.77900
O124        O  0.80482546  0.01943947  0.70211444    -1.14000
O125        O  0.76528361  0.99930911  0.64477556    -0.73200
C126        C  0.77416521  0.01240052  0.61061677     0.97500
C127        C  0.83129623  0.07311835  0.74113073     0.93900
Al128      Al  0.83622054  0.01335197  0.73092786     1.55600
O129        O  0.76300365  0.05540811  0.68436840    -0.77800
C130        C  0.82265928  0.95788532  0.70143308     0.98100
C131        C  0.85614872  0.03367544  0.64744239     0.93000
O132        O  0.83715321  0.05134076  0.64819942    -0.83100
O133        O  0.54200967  0.14713717  0.92551330    -0.82600
C134        C  0.50468622  0.18554719  0.75526788     0.96800
O135        O  0.50949019  0.16049285  0.76436939    -0.71700
O136        O  0.55722537  0.14454319  0.79368148    -0.75300
Al137      Al  0.52166689  0.14213775  0.81946931     1.49000
C138        C  0.57881802  0.14502955  0.81685428     0.92000
O139        O  0.56636475  0.20732107  0.85612315    -0.81500
O140        O  0.49393702  0.20056896  0.91487720    -0.75100
Al141      Al  0.55337778  0.17688110  0.88965150     1.90100
O142        O  0.52685846  0.22908036  0.85220831    -0.74200
O143        O  0.46861385  0.17619941  0.84689166    -0.74000
O144        O  0.50216964  0.20302849  0.78675464    -0.79700
O145        O  0.48616306  0.13485837  0.84016103    -0.77900
O146        O  0.52480630  0.17292518  0.85266280    -1.14000
O147        O  0.53339973  0.11807827  0.86907196    -0.73200
C148        C  0.53750798  0.12295166  0.91137895     0.97500
C149        C  0.55272100  0.22903664  0.84874124     0.93900
Al150      Al  0.49992963  0.19985265  0.85021641     1.55600
O151        O  0.57837636  0.15416372  0.85713209    -0.77800
C152        C  0.46607519  0.15033103  0.84745458     0.98100
C153        C  0.51250934  0.20536094  0.94348524     0.93000
O154        O  0.53687544  0.20045281  0.93318700    -0.83100
O155        O  0.53708481  0.29021246  0.43787578    -0.82600
C156        C  0.50338670  0.29177985  0.25235523     0.96800
O157        O  0.49269599  0.27810921  0.28443047    -0.71700
O158        O  0.53034204  0.24807464  0.32470084    -0.75300
Al159      Al  0.50320103  0.27266348  0.34692207     1.49000
C160        C  0.55354214  0.24367905  0.34205031     0.92000
O161        O  0.57970903  0.30781552  0.33368731    -0.81500
O162        O  0.51789118  0.35397748  0.37164435    -0.75100
Al163      Al  0.55632339  0.29906845  0.38325190     1.90100
O164        O  0.55555235  0.34158329  0.30513283    -0.74200
O165        O  0.47995776  0.32892049  0.32255381    -0.74000
O166        O  0.51856687  0.31214577  0.26111282    -0.79700
O167        O  0.47328391  0.29421679  0.36923604    -0.77900
O168        O  0.52616851  0.30105425  0.34938738    -1.14000
O169        O  0.50872826  0.26044305  0.40809747    -0.73200
C170        C  0.52059328  0.27055924  0.44248623     0.97500
C171        C  0.57803383  0.32919933  0.30941231     0.93900
Al172      Al  0.51863774  0.33156475  0.31773746     1.55600
O173        O  0.56391434  0.26089850  0.36966904    -0.77800
C174        C  0.46466012  0.31550978  0.34903517     0.98100
C175        C  0.53702065  0.35542459  0.40055413     0.93000
O176        O  0.55495858  0.33672099  0.40324713    -0.83100
O177        O  0.15013290  0.93228041  0.42281608    -0.82600
C178        C  0.18744788  0.97805473  0.25834511     0.96800
O179        O  0.16268688  0.97394775  0.26791012    -0.71700
O180        O  0.14674981  0.92429316  0.28920793    -0.75300
Al181      Al  0.14510340  0.95862724  0.32066807     1.49000
C182        C  0.14778844  0.90119512  0.30861445     0.92000
O183        O  0.20981950  0.91096996  0.34930092    -0.81500
O184        O  0.20334859  0.98133868  0.41760656    -0.75100
Al185      Al  0.17979415  0.92256922  0.38511300     1.90100
O186        O  0.23158171  0.95065162  0.35151519    -0.74200
O187        O  0.17938343  0.01032428  0.35323238    -0.74000
O188        O  0.20536729  0.97825335  0.28911949    -0.79700
O189        O  0.13834993  0.99314854  0.34749524    -0.77900
O190        O  0.17580335  0.95323810  0.35245483    -1.14000
O191        O  0.12177183  0.94427760  0.36754163    -0.73200
C192        C  0.12638775  0.93812680  0.40899725     0.97500
C193        C  0.23133266  0.92482412  0.34380329     0.93900
Al194      Al  0.20259401  0.97811011  0.35273531     1.55600
O195        O  0.15754441  0.89918175  0.34833532    -0.77800
C196        C  0.15382988  0.01311753  0.35558956     0.98100
C197        C  0.20784706  0.96156296  0.44438052     0.93000
O198        O  0.20313411  0.93725631  0.43149011    -0.83100
O199        O  0.28614259  0.94653816  0.93990837    -0.82600
C200        C  0.29292415  0.97851909  0.75588630     0.96800
O201        O  0.27976338  0.99182255  0.78612439    -0.71700
O202        O  0.24701226  0.95656480  0.82592806    -0.75300
Al203      Al  0.27240785  0.98260832  0.84914476     1.49000
C204        C  0.24124301  0.93339507  0.84290422     0.92000
O205        O  0.30350142  0.90382966  0.83512794    -0.81500
O206        O  0.35040226  0.96482371  0.88081080    -0.75100
Al207      Al  0.29503533  0.92727481  0.88578757     1.90100
O208        O  0.34002278  0.92645026  0.81506300    -0.74200
O209        O  0.32905988  0.00315948  0.82677093    -0.74000
O210        O  0.31278963  0.96324863  0.76695390    -0.79700
O211        O  0.29480251  0.01189762  0.87248459    -0.77900
O212        O  0.29913214  0.95792028  0.85344340    -1.14000
O213        O  0.25916301  0.97786815  0.91014294    -0.73200
C214        C  0.26772473  0.96445826  0.94429782     0.97500
C215        C  0.32644531  0.90448948  0.81590416     0.93900
Al216      Al  0.33044838  0.96400397  0.82463569     1.55600
O217        O  0.25739499  0.92181913  0.87066632    -0.77800
C218        C  0.31652900  0.01935286  0.85311902     0.98100
C219        C  0.35083807  0.94456834  0.90805704     0.93000
O220        O  0.33198428  0.92673946  0.90799192    -0.83100
O221        O  0.43656917  0.65276760  0.63220618    -0.82600
C222        C  0.47884219  0.69093968  0.79949684     0.96800
O223        O  0.47620351  0.66580286  0.78858661    -0.71700
O224        O  0.42719966  0.64884064  0.76587736    -0.75300
Al225      Al  0.46117509  0.64788730  0.73499329     1.49000
C226        C  0.40459667  0.64915005  0.74551100     0.92000
O227        O  0.41222236  0.71179306  0.70478044    -0.81500
O228        O  0.48345222  0.70770265  0.64170701    -0.75100
Al229      Al  0.42537493  0.68204759  0.66986425     1.90100
O230        O  0.45061116  0.73521473  0.70485276    -0.74200
O231        O  0.51115802  0.68465877  0.70892039    -0.74000
O232        O  0.47680206  0.70961363  0.76988465    -0.79700
O233        O  0.49530461  0.64248323  0.70792872    -0.77900
O234        O  0.45511124  0.67897290  0.70415081    -1.14000
O235        O  0.44751862  0.62375412  0.68718978    -0.73200
C236        C  0.44224083  0.62867506  0.64540939     0.97500
C237        C  0.42491680  0.73417151  0.71002502     0.93900
Al238      Al  0.47860022  0.70692016  0.70625894     1.55600
O239        O  0.40270685  0.65869870  0.70554141    -0.77800
C240        C  0.51473405  0.65904915  0.70395706     0.98100
C241        C  0.46414310  0.71235714  0.61436897     0.93000
O242        O  0.44009124  0.70629655  0.62525943    -0.83100
O243        O  0.44866081  0.78835995  0.11739233    -0.82600
C244        C  0.47843119  0.79560205  0.30297068     0.96800
O245        O  0.49107050  0.78188754  0.27274069    -0.71700
O246        O  0.45682386  0.74896300  0.23078997    -0.75300
Al247      Al  0.48295810  0.77487188  0.20962938     1.49000
C248        C  0.43349601  0.74428793  0.21432271     0.92000
O249        O  0.40443823  0.80746663  0.21931082    -0.81500
O250        O  0.46536415  0.85453195  0.17916446    -0.75100
Al251      Al  0.42878651  0.79824334  0.17061100     1.90100
O252        O  0.42694711  0.84326378  0.24381604    -0.74200
O253        O  0.50310550  0.83252013  0.23299665    -0.74000
O254        O  0.46345281  0.81576883  0.29196466    -0.79700
O255        O  0.51235619  0.79744612  0.18841597    -0.77900
O256        O  0.45859813  0.80215069  0.20471526    -1.14000
O257        O  0.47962648  0.76175295  0.14847994    -0.73200
C258        C  0.46696873  0.77022827  0.11367484     0.97500
C259        C  0.40499235  0.82999925  0.24075089     0.93900
Al260      Al  0.46428584  0.83377474  0.23452059     1.55600
O261        O  0.42251552  0.76086532  0.18660659    -0.77800
C262        C  0.51957190  0.81946646  0.20793872     0.98100
C263        C  0.44629005  0.85462015  0.15002238     0.93000
O264        O  0.42914262  0.83522469  0.14793644    -0.83100
O265        O  0.03063364  0.68713783  0.11067056    -0.82600
C266        C  0.00603960  0.67766131  0.29828172     0.96800
O267        O  0.99283566  0.69167973  0.26920669    -0.71700
O268        O  0.02688233  0.72463021  0.22702894    -0.75300
Al269      Al  0.99980882  0.69967395  0.20604294     1.49000
C270        C  0.04953935  0.72981986  0.20852115     0.92000
O271        O  0.07842156  0.66583194  0.20646906    -0.81500
O272        O  0.01600925  0.61981730  0.17190142    -0.75100
Al273      Al  0.05220956  0.67638187  0.16116769     1.90100
O274        O  0.05621478  0.63053723  0.23341934    -0.74200
O275        O  0.97964351  0.64202728  0.22818404    -0.74000
O276        O  0.02113780  0.65792894  0.28554186    -0.79700
O277        O  0.96982655  0.67778428  0.18544139    -0.77900
O278        O  0.02369197  0.67220871  0.19801261    -1.14000
O279        O  0.00159955  0.71417492  0.14541434    -0.73200
C280        C  0.01263115  0.70558479  0.10917360     0.97500
C281        C  0.07829639  0.64324013  0.22765949     0.93900
Al282      Al  0.01866460  0.64035045  0.22738105     1.55600
O283        O  0.05947771  0.71368274  0.17879096    -0.77800
C284        C  0.96277955  0.65563525  0.20454925     0.98100
C285        C  0.03303170  0.62066152  0.13946663     0.93000
O286        O  0.05008418  0.64006828  0.13612150    -0.83100
O287        O  0.04056657  0.82132003  0.62779860    -0.82600
C288        C  0.99900128  0.78637844  0.79697941     0.96800
O289        O  0.00406996  0.81114968  0.78682936    -0.71700
O290        O  0.05227493  0.82825877  0.76125027    -0.75300
Al291      Al  0.01738698  0.82839071  0.73201622     1.49000
C292        C  0.07412975  0.82974602  0.73899762     0.92000
O293        O  0.06647546  0.76531907  0.70609652    -0.81500
O294        O  0.99638495  0.76634253  0.63793853    -0.75100
Al295      Al  0.05298537  0.79361245  0.66763721     1.90100
O296        O  0.02795194  0.74160726  0.70673773    -0.74200
O297        O  0.96693091  0.79152557  0.70017929    -0.74000
O298        O  0.99859971  0.76796204  0.76669215    -0.79700
O299        O  0.98242438  0.83360035  0.70771706    -0.77900
O300        O  0.02300413  0.79707977  0.70138353    -1.14000
O301        O  0.02935722  0.85132933  0.68183054    -0.73200
C302        C  0.03408090  0.84550722  0.64006856     0.97500
C303        C  0.05359218  0.74312485  0.71332156     0.93900
Al304      Al  0.99939669  0.76923766  0.70290722     1.55600
O305        O  0.07535991  0.81948417  0.69948794    -0.77800
C306        C  0.96336656  0.81727632  0.69871012     0.98100
C307        C  0.01625045  0.76071295  0.61243265     0.93000
O308        O  0.03992288  0.76701227  0.62496012    -0.83100
O309        O  0.33054376  0.53942897  0.41792694    -0.82600
C310        C  0.29433983  0.49368155  0.25182611     0.96800
O311        O  0.31880342  0.50014743  0.26038047    -0.71700
O312        O  0.33516177  0.54947866  0.28458645    -0.75300
Al313      Al  0.33668114  0.51450112  0.31426872     1.49000
C314        C  0.33449765  0.57213031  0.30547158     0.92000
O315        O  0.27264903  0.56177411  0.34148384    -0.81500
O316        O  0.27797933  0.49210033  0.41209661    -0.75100
Al317      Al  0.30180919  0.54994318  0.37906706     1.90100
O318        O  0.25056672  0.52208972  0.34322497    -0.74200
O319        O  0.30284296  0.46232753  0.34950247    -0.74000
O320        O  0.27696772  0.49246130  0.28330670    -0.79700
O321        O  0.34348473  0.47942641  0.33810144    -0.77900
O322        O  0.30601447  0.51930906  0.34622132    -1.14000
O323        O  0.35993302  0.52781073  0.36369773    -0.73200
C324        C  0.35452972  0.53344850  0.40537611     0.97500
C325        C  0.25114501  0.54792002  0.33503754     0.93900
Al326      Al  0.27939680  0.49429316  0.34689662     1.55600
O327        O  0.32511296  0.57325170  0.34533822    -0.77800
C328        C  0.32842855  0.45955220  0.34849685     0.98100
C329        C  0.27238692  0.51234262  0.43733946     0.93000
O330        O  0.27717452  0.53630118  0.42350212    -0.83100
O331        O  0.19612093  0.52725179  0.93612326    -0.82600
C332        C  0.18819475  0.49886484  0.75019729     0.96800
O333        O  0.20127873  0.48508830  0.77984575    -0.71700
O334        O  0.23388386  0.51958079  0.82232411    -0.75300
Al335      Al  0.20844569  0.49286505  0.84325981     1.49000
C336        C  0.23800757  0.54346052  0.83813098     0.92000
O337        O  0.17453987  0.57206133  0.83599583    -0.81500
O338        O  0.12965238  0.50926637  0.87462079    -0.75100
Al339      Al  0.18504989  0.54718246  0.88356366     1.90100
O340        O  0.13953720  0.54871358  0.81175208    -0.74200
O341        O  0.15197066  0.47212481  0.81895481    -0.74000
O342        O  0.16804615  0.51362336  0.76176683    -0.79700
O343        O  0.18616135  0.46312932  0.86469250    -0.77900
O344        O  0.18133885  0.51727607  0.84897789    -1.14000
O345        O  0.22174690  0.49576193  0.90416167    -0.73200
C346        C  0.21371586  0.50844680  0.93927492     0.97500
C347        C  0.15203824  0.57114858  0.81542683     0.93900
Al348      Al  0.15004274  0.51138013  0.81914263     1.55600
O349        O  0.22142932  0.55450561  0.86564410    -0.77800
C350        C  0.16425539  0.45592365  0.84558036     0.98100
C351        C  0.13040298  0.52720338  0.90620051     0.93000
O352        O  0.14918732  0.54502110  0.90821179    -0.83100
C353        C  0.24034580  0.47963130  0.54211458    -0.11600
C354        C  0.23277899  0.50306377  0.56763819     0.05500
C355        C  0.23877441  0.52929236  0.55026168    -0.10400
C356        C  0.25191810  0.53209069  0.50826952    -0.12000
C357        C  0.25935781  0.50872689  0.48251692    -0.01800
C358        C  0.25348186  0.48243649  0.49984152    -0.10900
C359        C  0.21949743  0.50037288  0.61297926     0.05500
H360        H  0.23368764  0.54770400  0.56951158     0.07500
H361        H  0.25617018  0.55267585  0.49592834     0.10900
H362        H  0.25889199  0.46409426  0.48066331     0.11200
H363        H  0.23582934  0.45914979  0.55462321     0.07500
C364        C  0.19837694  0.51840235  0.62601060    -0.11600
C365        C  0.18736764  0.51723863  0.67010205    -0.10900
C366        C  0.19734853  0.49808028  0.70203230    -0.01800
C367        C  0.21790569  0.47954877  0.68853749    -0.12000
C368        C  0.22881955  0.48064604  0.64446292    -0.10400
H369        H  0.19057991  0.53362674  0.60223399     0.07500
H370        H  0.17164074  0.53186680  0.67959348     0.11200
H371        H  0.22608854  0.46460059  0.71243837     0.10900
H372        H  0.24527287  0.46672024  0.63559562     0.07500
C373        C  0.22448568  0.50438877  0.06731776    -0.11600
C374        C  0.24956030  0.49039380  0.07014863     0.05500
C375        C  0.26231772  0.48158357  0.02967304    -0.10400
C376        C  0.25031237  0.48690913  0.98711877    -0.12000
C377        C  0.22555556  0.50149595  0.98430601    -0.01800
C378        C  0.21268433  0.51004381  0.02482360    -0.10900
C379        C  0.26276869  0.48651431  0.11531706     0.05500
H380        H  0.28159417  0.47069547  0.03099419     0.07500
H381        H  0.26072289  0.48015578  0.95635658     0.10900
H382        H  0.19358803  0.52126827  0.02366344     0.11200
H383        H  0.21439004  0.51172695  0.09801264     0.07500
C384        C  0.29025515  0.49363396  0.12207205    -0.11600
C385        C  0.30127551  0.49459456  0.16637353    -0.10900
C386        C  0.28495483  0.48832600  0.20442942    -0.01800
C387        C  0.25812455  0.47910671  0.19704443    -0.12000
C388        C  0.24715728  0.47827604  0.15303443    -0.10400
H389        H  0.30272030  0.50005891  0.09343840     0.07500
H390        H  0.32203663  0.50158180  0.17098701     0.11200
H391        H  0.24510172  0.47362725  0.22553543     0.10900
H392        H  0.22609982  0.47216200  0.14862295     0.07500
C393        C  0.10859180  0.69651865  0.76171765    -0.11600
C394        C  0.09753211  0.67022275  0.75352752     0.05500
C395        C  0.07195804  0.66837312  0.73184388    -0.10400
C396        C  0.05759203  0.69208119  0.71960156    -0.12000
C397        C  0.06866331  0.71825199  0.72775909    -0.01800
C398        C  0.09439181  0.72028987  0.74860635    -0.10900
C399        C  0.11207036  0.64478722  0.76849107     0.05500
H400        H  0.06304465  0.64855777  0.72384423     0.07500
H401        H  0.03798271  0.68989439  0.70291609     0.10900
H402        H  0.10335137  0.74026971  0.75536487     0.11200
H403        H  0.12799067  0.69880214  0.77897679     0.07500
C404        C  0.14075685  0.64301314  0.76790984    -0.11600
C405        C  0.15407259  0.61909650  0.78307024    -0.10900
C406        C  0.13889611  0.59639042  0.79805998    -0.01800
C407        C  0.11035335  0.59801407  0.79807108    -0.12000
C408        C  0.09712836  0.62197204  0.78404449    -0.10400
H409        H  0.15292649  0.66000048  0.75550510     0.07500
H410        H  0.17612566  0.61822550  0.78267097     0.11200
H411        H  0.09818094  0.58093248  0.81025872     0.10900
H412        H  0.07512966  0.62271570  0.78630937     0.07500
C413        C  0.15181084  0.63311437  0.26668404    -0.11600
C414        C  0.15291220  0.60430458  0.27335838     0.05500
C415        C  0.12922680  0.58890087  0.26438543    -0.10400
C416        C  0.10513913  0.60178847  0.25049837    -0.12000
C417        C  0.10402732  0.63044232  0.24400830    -0.01800
C418        C  0.12770862  0.64598847  0.25170456    -0.10900
C419        C  0.17836371  0.59015309  0.28960292     0.05500
H420        H  0.12924399  0.56667934  0.26740391     0.07500
H421        H  0.08741958  0.58912195  0.24384852     0.10900
H422        H  0.12747758  0.66811039  0.24678214     0.11200
H423        H  0.16940330  0.64585082  0.27363490     0.07500
C424        C  0.20439199  0.60028255  0.27834207    -0.11600
C425        C  0.22801039  0.58666199  0.29329204    -0.10900
C426        C  0.22622323  0.56226574  0.31902193    -0.01800
C427        C  0.20039954  0.55203659  0.33019106    -0.12000
C428        C  0.17682157  0.56596322  0.31624552    -0.10400
H429        H  0.20662856  0.61849496  0.25735052     0.07500
H430        H  0.24771739  0.59496865  0.28406413     0.11200
H431        H  0.19842074  0.53352959  0.35061839     0.10900
H432        H  0.15736021  0.55781666  0.32698209     0.07500
C433        C  0.09813197  0.54017065  0.02016885    -0.11600
C434        C  0.07086268  0.54487387  0.00780962     0.05500
C435        C  0.06252551  0.53933861  0.96255963    -0.10400
C436        C  0.08160166  0.53084702  0.92964142    -0.12000
C437        C  0.10920791  0.52848889  0.94154166    -0.01800
C438        C  0.11716598  0.53236307  0.98723444    -0.10900
C439        C  0.05319859  0.56030828  0.04000444     0.05500
H440        H  0.04163739  0.54304044  0.95222806     0.07500
H441        H  0.07521525  0.52830619  0.89433601     0.10900
H442        H  0.13844789  0.53085122  0.99688566     0.11200
H443        H  0.10521745  0.54475514  0.05452369     0.07500
C444        C  0.05238593  0.55311693  0.08666206    -0.11600
C445        C  0.04287024  0.57199368  0.11927425    -0.10900
C446        C  0.03449166  0.59835794  0.10560852    -0.01800
C447        C  0.03318540  0.60474245  0.05882103    -0.12000
C448        C  0.04210191  0.58568215  0.02615282    -0.10400
H449        H  0.06097766  0.53373131  0.09812024     0.07500
H450        H  0.04440666  0.56694459  0.15534646     0.11200
H451        H  0.02703589  0.62515631  0.04783977     0.10900
H452        H  0.04283724  0.59187889  0.99052373     0.07500
C453        C  0.98353167  0.72684254  0.50871982    -0.11600
C454        C  0.00661802  0.71790228  0.48419717     0.05500
C455        C  0.03258072  0.72292944  0.50254317    -0.10400
C456        C  0.03548567  0.73680732  0.54408072    -0.12000
C457        C  0.01250211  0.74601569  0.56845580    -0.01800
C458        C  0.98644692  0.74069458  0.55060422    -0.10900
C459        C  0.00403466  0.70490132  0.43832789     0.05500
H460        H  0.05076973  0.71679070  0.48415146     0.07500
H461        H  0.05586661  0.74044338  0.55698172     0.10900
H462        H  0.96837860  0.74741326  0.56878278     0.11200
H463        H  0.96324500  0.72310671  0.49551357     0.07500
C464        C  0.02155804  0.68331352  0.42504155    -0.11600
C465        C  0.02150121  0.67353776  0.37992839    -0.10900
C466        C  0.00394039  0.68521451  0.34724632    -0.01800
C467        C  0.98549641  0.70582590  0.36113668    -0.12000
C468        C  0.98553093  0.71554784  0.40616303    -0.10400
H469        H  0.03576270  0.67440756  0.44932405     0.07500
H470        H  0.03584111  0.65755126  0.37029651     0.11200
H471        H  0.97158911  0.71515875  0.33680297     0.10900
H472        H  0.97196156  0.73232798  0.41517672     0.07500
C473        C  0.00217687  0.78322689  0.92658220    -0.11600
C474        C  0.99205564  0.75654292  0.93433936     0.05500
C475        C  0.98126477  0.74152543  0.89753949    -0.10400
C476        C  0.98221222  0.75211535  0.85331220    -0.12000
C477        C  0.99404281  0.77796147  0.84482192    -0.01800
C478        C  0.00317949  0.79389781  0.88200194    -0.10900
C479        C  0.99533814  0.74305510  0.97937349     0.05500
H480        H  0.97298214  0.72109982  0.90282016     0.07500
H481        H  0.97458655  0.73952950  0.82542799     0.10900
H482        H  0.01238993  0.81386799  0.87636679     0.11200
H483        H  0.01070801  0.79512559  0.95454592     0.07500
C484        C  0.00709875  0.71666608  0.98163715    -0.11600
C485        C  0.01209068  0.70424084  0.02383653    -0.10900
C486        C  0.00514895  0.71783609  0.06467841    -0.01800
C487        C  0.99250759  0.74385582  0.06247224    -0.12000
C488        C  0.98788034  0.75650791  0.02009821    -0.10400
H489        H  0.01324862  0.70597801  0.95067629     0.07500
H490        H  0.02176251  0.68415458  0.02452294     0.11200
H491        H  0.98700594  0.75479829  0.09352146     0.10900
H492        H  0.97866335  0.77679951  0.01907648     0.07500
C493        C  0.37525714  0.69597274  0.23889484    -0.11600
C494        C  0.38887077  0.67086803  0.24623822     0.05500
C495        C  0.41749446  0.67020016  0.24414692    -0.10400
C496        C  0.43221826  0.69424461  0.23501314    -0.12000
C497        C  0.41848844  0.71917201  0.22692137    -0.01800
C498        C  0.38991416  0.71982152  0.22893319    -0.10900
C499        C  0.37325472  0.64573152  0.25779406     0.05500
H500        H  0.42847594  0.65116377  0.25028239     0.07500
H501        H  0.45424352  0.69326844  0.23333363     0.10900
H502        H  0.37890334  0.73887126  0.22294667     0.11200
H503        H  0.35322951  0.69706125  0.24026656     0.07500
C504        C  0.35247274  0.64704586  0.29069849    -0.11600
C505        C  0.33903647  0.62318228  0.30443474    -0.10900
C506        C  0.34591152  0.59747387  0.28531671    -0.01800
C507        C  0.36578409  0.59625661  0.25080961    -0.12000
C508        C  0.37949534  0.62019999  0.23736821    -0.10400
H509        H  0.34733489  0.66640254  0.30716119     0.07500
H510        H  0.32375819  0.62474611  0.33108101     0.11200
H511        H  0.37154902  0.57668311  0.23571096     0.10900
H512        H  0.39522927  0.61874152  0.21149155     0.07500
C513        C  0.28484227  0.60333008  0.81534830    -0.11600
C514        C  0.30949683  0.59006002  0.80467027     0.05500
C515        C  0.31034026  0.56104931  0.80401851    -0.10400
C516        C  0.28693805  0.54569416  0.81379702    -0.12000
C517        C  0.26246314  0.55911692  0.82497483    -0.01800
C518        C  0.26163793  0.58803938  0.82553690    -0.10900
C519        C  0.33393802  0.60656861  0.79307927     0.05500
H520        H  0.32897333  0.55025552  0.79533247     0.07500
H521        H  0.28807867  0.52339349  0.81344732     0.10900
H522        H  0.24296431  0.59887706  0.83392211     0.11200
H523        H  0.28357105  0.62560879  0.81651987     0.07500
C524        C  0.33135193  0.63013213  0.76544218    -0.11600
C525        C  0.35433361  0.64489331  0.75212268    -0.10900
C526        C  0.38037771  0.63653805  0.76635201    -0.01800
C527        C  0.38301100  0.61375505  0.79561792    -0.12000
C528        C  0.35997268  0.59876809  0.80864413    -0.10400
H529        H  0.31164016  0.63655748  0.75257040     0.07500
H530        H  0.35182544  0.66237466  0.72942663     0.11200
H531        H  0.40294979  0.60676553  0.80659878     0.10900
H532        H  0.36253843  0.58092117  0.83048131     0.07500
C533        C  0.38784174  0.53942151  0.52068154    -0.11600
C534        C  0.41341317  0.55029648  0.50909031     0.05500
C535        C  0.42140462  0.55016590  0.46270839    -0.10400
C536        C  0.40296170  0.54236021  0.42839684    -0.12000
C537        C  0.37632511  0.53468754  0.44013384    -0.01800
C538        C  0.36949068  0.53177845  0.48655217    -0.10900
C539        C  0.42835592  0.56695682  0.54367023     0.05500
H540        H  0.44117994  0.55797826  0.45277701     0.07500
H541        H  0.40879916  0.54446482  0.39279389     0.10900
H542        H  0.34920515  0.52538334  0.49648379     0.11200
H543        H  0.38087568  0.53929669  0.55586513     0.07500
C544        C  0.43784973  0.59319404  0.53127330    -0.11600
C545        C  0.44417494  0.61262282  0.56476165    -0.10900
C546        C  0.44133421  0.60623861  0.61137480    -0.01800
C547        C  0.43471218  0.57919410  0.62407973    -0.12000
C548        C  0.42821602  0.55966488  0.59040330    -0.10400
H549        H  0.43804671  0.59968040  0.49579981     0.07500
H550        H  0.44973137  0.63323595  0.55410290     0.11200
H551        H  0.43265101  0.57372263  0.65987762     0.10900
H552        H  0.42137262  0.53945812  0.60099186     0.07500
C553        C  0.49494956  0.75289481  0.40719583    -0.11600
C554        C  0.48025735  0.76671686  0.44142748     0.05500
C555        C  0.46685053  0.79152755  0.43073664    -0.10400
C556        C  0.46712382  0.80167706  0.38599956    -0.12000
C557        C  0.48080679  0.78713274  0.35128636    -0.01800
C558        C  0.49523130  0.76300351  0.36256300    -0.10900
C559        C  0.47687670  0.75388244  0.48686502     0.05500
H560        H  0.45560126  0.80268939  0.45678201     0.07500
H561        H  0.45595239  0.82039113  0.37833738     0.10900
H562        H  0.50592155  0.75128522  0.33653184     0.11200
H563        H  0.50514912  0.73356430  0.41443894     0.07500
C564        C  0.45085033  0.75248941  0.50642463    -0.11600
C565        C  0.44690022  0.73872495  0.54761180    -0.10900
C566        C  0.46893182  0.72624449  0.57037021    -0.01800
C567        C  0.49510234  0.72790810  0.55127749    -0.12000
C568        C  0.49901427  0.74147490  0.50956590    -0.10400
H569        H  0.43338089  0.76146363  0.48925242     0.07500
H570        H  0.42651997  0.73797929  0.56176101     0.11200
H571        H  0.51240432  0.71851813  0.56830573     0.10900
H572        H  0.51929184  0.74232692  0.49505403     0.07500
C573        C  0.49549898  0.73597373  0.90071638    -0.11600
C574        C  0.48580709  0.72014892  0.93726976     0.05500
C575        C  0.47690115  0.69307434  0.92911704    -0.10400
C576        C  0.47595945  0.68268209  0.88429689    -0.12000
C577        C  0.48394482  0.69931199  0.84735498    -0.01800
C578        C  0.49464955  0.72564393  0.85621760    -0.10900
C579        C  0.48212629  0.73317506  0.98250910     0.05500
H580        H  0.46923213  0.68062310  0.95701613     0.07500
H581        H  0.46761786  0.66234339  0.87831464     0.10900
H582        H  0.50137547  0.73875127  0.82844794     0.11200
H583        H  0.50271170  0.75678731  0.90645921     0.07500
C584        C  0.49344748  0.72155841  0.02214644    -0.11600
C585        C  0.48918278  0.73406574  0.06478697    -0.10900
C586        C  0.47311145  0.75807620  0.06840302    -0.01800
C587        C  0.46191829  0.76962541  0.02853376    -0.12000
C588        C  0.46653872  0.75738291  0.98598438    -0.10400
H589        H  0.50557480  0.70291172  0.02003149     0.07500
H590        H  0.49798059  0.72462687  0.09500159     0.11200
H591        H  0.44941590  0.78802918  0.03023331     0.10900
H592        H  0.45745011  0.76650684  0.95572763     0.07500
C593        C  0.13860393  0.87212062  0.74201261    -0.11600
C594        C  0.14261219  0.87633830  0.78914629     0.05500
C595        C  0.12398693  0.86468046  0.82020236    -0.10400
C596        C  0.10163594  0.84940515  0.80426896    -0.12000
C597        C  0.09790023  0.84503496  0.75708624    -0.01800
C598        C  0.11666178  0.85651415  0.72621566    -0.10900
C599        C  0.16669108  0.89216504  0.80534716     0.05500
H600        H  0.12653569  0.86768833  0.85673492     0.07500
H601        H  0.08739896  0.84088941  0.82874680     0.10900
H602        H  0.11414223  0.85378044  0.68960048     0.11200
H603        H  0.15275371  0.88052596  0.71728208     0.07500
C604        C  0.18285934  0.88218681  0.84146162    -0.11600
C605        C  0.20693226  0.89570150  0.85385099    -0.10900
C606        C  0.21525887  0.91964515  0.83066252    -0.01800
C607        C  0.19856867  0.93017526  0.79562213    -0.12000
C608        C  0.17461585  0.91652567  0.78299521    -0.10400
H609        H  0.17737067  0.86339136  0.85910936     0.07500
H610        H  0.21919359  0.88719094  0.88130323     0.11200
H611        H  0.20426066  0.94870084  0.77736971     0.10900
H612        H  0.16235906  0.92490218  0.75542099     0.07500
C613        C  0.33753389  0.83625026  0.75558061    -0.11600
C614        C  0.36567319  0.83220285  0.76308671     0.05500
C615        C  0.38007388  0.85190415  0.78874998    -0.10400
C616        C  0.36704834  0.87535414  0.80519411    -0.12000
C617        C  0.33912480  0.87937152  0.79770432    -0.01800
C618        C  0.32426282  0.85954518  0.77334968    -0.10900
C619        C  0.38015177  0.80736097  0.74566849     0.05500
H620        H  0.40143996  0.84912742  0.79677690     0.07500
H621        H  0.37879282  0.89024986  0.82456049     0.10900
H622        H  0.30266772  0.86240080  0.76722213     0.11200
H623        H  0.32583374  0.82163456  0.73563398     0.07500
C624        C  0.36708174  0.78164484  0.74407617    -0.11600
C625        C  0.38154166  0.75795400  0.73173134    -0.10900
C626        C  0.40944971  0.75940979  0.72123730    -0.01800
C627        C  0.42232359  0.78517024  0.72129751    -0.12000
C628        C  0.40778483  0.80890083  0.73293132    -0.10400
H629        H  0.34593756  0.77957162  0.75394631     0.07500
H630        H  0.37099008  0.73837722  0.73153658     0.11200
H631        H  0.44367369  0.78701162  0.71248001     0.10900
H632        H  0.41833850  0.82845449  0.73227342     0.07500
C633        C  0.40723624  0.90789407  0.96922378    -0.11600
C634        C  0.41132614  0.92489077  0.00761220     0.05500
C635        C  0.39794312  0.95058335  0.00962745    -0.10400
C636        C  0.37955968  0.95829837  0.97507509    -0.12000
C637        C  0.37405915  0.94013635  0.93882056    -0.01800
C638        C  0.38851813  0.91530422  0.93549437    -0.10900
C639        C  0.42525425  0.91317053  0.04825488     0.05500
H640        H  0.40067166  0.96397199  0.03900878     0.07500
H641        H  0.36831842  0.97745138  0.97826284     0.10900
H642        H  0.38430020  0.90098402  0.90787750     0.11200
H643        H  0.41683138  0.88780123  0.96709794     0.07500
C644        C  0.41156533  0.91300281  0.09050174    -0.11600
C645        C  0.41998894  0.89527882  0.12539129    -0.10900
C646        C  0.44252908  0.87793947  0.11894900    -0.01800
C647        C  0.45772820  0.87974147  0.07849905    -0.12000
C648        C  0.44912227  0.89727926  0.04325712    -0.10400
H649        H  0.39289204  0.92463179  0.09506932     0.07500
H650        H  0.40783574  0.89372972  0.15626512     0.11200
H651        H  0.47493199  0.86612119  0.07285224     0.10900
H652        H  0.45997598  0.89701989  0.01096389     0.07500
C653        C  0.13212172  0.82647774  0.28347426    -0.11600
C654        C  0.10863795  0.82878269  0.25634335     0.05500
C655        C  0.09944818  0.85501258  0.24309092    -0.10400
C656        C  0.11327365  0.87869325  0.25767832    -0.12000
C657        C  0.13604576  0.87645026  0.28668857    -0.01800
C658        C  0.14552935  0.85011281  0.29897970    -0.10900
C659        C  0.09328213  0.80381042  0.24342893     0.05500
H660        H  0.08138165  0.85712378  0.22202569     0.07500
H661        H  0.10538211  0.89876162  0.24816600     0.10900
H662        H  0.16298762  0.84784290  0.32141642     0.11200
H663        H  0.13947922  0.80638653  0.29401565     0.07500
C664        C  0.10517340  0.78387416  0.21492436    -0.11600
C665        C  0.09090212  0.75990724  0.20352883    -0.10900
C666        C  0.06461525  0.75521012  0.22106133    -0.01800
C667        C  0.05287001  0.77516758  0.25004492    -0.12000
C668        C  0.06702813  0.79935189  0.26085049    -0.10400
H669        H  0.12545633  0.78696422  0.20131645     0.07500
H670        H  0.10054822  0.74497439  0.18113688     0.11200
H671        H  0.03269763  0.77217578  0.26414718     0.10900
H672        H  0.05767074  0.81443785  0.28332722     0.07500
C673        C  0.04500809  0.91423031  0.58407446    -0.11600
C674        C  0.04686211  0.90617994  0.53784996     0.05500
C675        C  0.03857333  0.87950353  0.52529996    -0.10400
C676        C  0.03217869  0.86023221  0.55879977    -0.12000
C677        C  0.03381314  0.86734859  0.60530951    -0.01800
C678        C  0.03852782  0.89488262  0.61768657    -0.10900
C679        C  0.06337239  0.92231118  0.50514776     0.05500
H680        H  0.03978151  0.87254678  0.49008729     0.07500
H681        H  0.02792164  0.83922131  0.54841898     0.10900
H682        H  0.03945268  0.90093199  0.65340012     0.11200
H683        H  0.05077990  0.93483041  0.59456431     0.07500
C684        C  0.05758877  0.92161380  0.45794199    -0.11600
C685        C  0.07762937  0.92869098  0.42619234    -0.10900
C686        C  0.10365062  0.93642747  0.44135442    -0.01800
C687        C  0.10848197  0.93993502  0.48830345    -0.12000
C688        C  0.08845694  0.93309890  0.51996625    -0.10400
H689        H  0.03830201  0.91372076  0.44559470     0.07500
H690        H  0.07342972  0.92613955  0.38997462     0.11200
H691        H  0.12830191  0.94641329  0.50061069     0.10900
H692        H  0.09370453  0.93375776  0.55599974     0.07500
C693        C  0.23351142  0.98914113  0.15741081    -0.11600
C694        C  0.21771399  0.97886604  0.12119564     0.05500
C695        C  0.19052074  0.97129166  0.12943579    -0.10400
C696        C  0.17986603  0.97252923  0.17386683    -0.12000
C697        C  0.19631331  0.98133775  0.21047362    -0.01800
C698        C  0.22294415  0.99037402  0.20153292    -0.10900
C699        C  0.23024657  0.97506531  0.07562385     0.05500
H700        H  0.17795115  0.96326978  0.10198040     0.07500
H701        H  0.15931454  0.96531510  0.17990956     0.10900
H702        H  0.23601987  0.99753765  0.22899131     0.11200
H703        H  0.25431334  0.99570978  0.15173948     0.07500
C704        C  0.21639789  0.98301730  0.03567470    -0.11600
C705        C  0.22887565  0.98013926  0.99294064    -0.10900
C706        C  0.25522028  0.96890944  0.98949117    -0.01800
C707        C  0.26886397  0.96053681  0.02937578    -0.12000
C708        C  0.25653288  0.96369063  0.07205189    -0.10400
H709        H  0.19614331  0.99184601  0.03758906     0.07500
H710        H  0.21776130  0.98632009  0.96253173     0.11200
H711        H  0.28907885  0.95158573  0.02757384     0.10900
H712        H  0.26746212  0.95696350  0.10232887     0.07500
C713        C  0.23641286  0.94788914  0.56250867    -0.11600
C714        C  0.24585910  0.97403451  0.57554339     0.05500
C715        C  0.24129875  0.99655266  0.54629181    -0.10400
C716        C  0.22837057  0.99273817  0.50395167    -0.12000
C717        C  0.21964259  0.96637462  0.49037092    -0.01800
C718        C  0.22342635  0.94409764  0.52046137    -0.10900
C719        C  0.26041221  0.97746071  0.61964047     0.05500
H720        H  0.24835945  0.01692658  0.55567406     0.07500
H721        H  0.22571614  0.01029106  0.48148961     0.10900
H722        H  0.21669792  0.92357713  0.51125686     0.11200
H723        H  0.23912657  0.93031051  0.58491742     0.07500
C724        C  0.25328719  0.99877082  0.64997290    -0.11600
C725        C  0.26488193  0.99994753  0.69370976    -0.10900
C726        C  0.28402419  0.98002585  0.70761936    -0.01800
C727        C  0.29235770  0.95973579  0.67621708    -0.12000
C728        C  0.28054177  0.95838340  0.63273968    -0.10400
H729        H  0.23782616  0.01371612  0.64066325     0.07500
H730        H  0.25816758  0.01589325  0.71718290     0.11200
H731        H  0.30705314  0.94411122  0.68595996     0.10900
H732        H  0.28668494  0.94201121  0.60963384     0.07500
C733        C  0.30602856  0.90690035  0.33053206    -0.11600
C734        C  0.30518032  0.88224384  0.30479237     0.05500
C735        C  0.27943306  0.87191367  0.29201097    -0.10400
C736        C  0.25547572  0.88567961  0.30478451    -0.12000
C737        C  0.25662069  0.91048770  0.32962349    -0.01800
C738        C  0.28213164  0.92104291  0.34202995    -0.10900
C739        C  0.33099955  0.86801317  0.29040552     0.05500
H740        H  0.27762422  0.85344086  0.27144016     0.07500
H741        H  0.23601476  0.87713794  0.29457654     0.10900
H742        H  0.28359547  0.93991744  0.36176418     0.11200
H743        H  0.32512999  0.91530401  0.34254904     0.07500
C744        C  0.35506406  0.88328303  0.28414515    -0.11600
C745        C  0.37908674  0.87054161  0.26984226    -0.10900
C746        C  0.37978259  0.84222441  0.26001083    -0.01800
C747        C  0.35597683  0.82667968  0.26617390    -0.12000
C748        C  0.33194107  0.83935560  0.28174631    -0.10400
H749        H  0.35538975  0.90538627  0.28883858     0.07500
H750        H  0.39696897  0.88321768  0.26481461     0.11200
H751        H  0.35593630  0.80477360  0.25893489     0.10900
H752        H  0.31418718  0.82658904  0.28696462     0.07500
C753        C  0.38280457  0.40876167  0.38291099    -0.11600
C754        C  0.37209474  0.38372657  0.36714356     0.05500
C755        C  0.34560576  0.38323115  0.34871692    -0.10400
C756        C  0.33031419  0.40767987  0.34529344    -0.12000
C757        C  0.34175316  0.43293662  0.35890707    -0.01800
C758        C  0.36792419  0.43310384  0.37845918    -0.10900
C759        C  0.39045803  0.35957556  0.36439993     0.05500
H760        H  0.33715344  0.36413270  0.33579836     0.07500
H761        H  0.31029650  0.40710195  0.32967402     0.10900
H762        H  0.37724653  0.45230425  0.38911858     0.11200
H763        H  0.40336624  0.40971631  0.39638253     0.07500
C764        C  0.39820955  0.34963495  0.32117621    -0.11600
C765        C  0.42137477  0.33307596  0.31668512    -0.10900
C766        C  0.43670354  0.32566400  0.35542910    -0.01800
C767        C  0.42744374  0.33324445  0.39908160    -0.12000
C768        C  0.40459587  0.35042150  0.40351226    -0.10400
H769        H  0.38787518  0.35675235  0.29055242     0.07500
H770        H  0.42840182  0.32756093  0.28268349     0.11200
H771        H  0.43925402  0.32804029  0.42925738     0.10900
H772        H  0.39906881  0.35812054  0.43710726     0.07500
C773        C  0.41407145  0.09909073  0.88905146    -0.11600
C774        C  0.39002670  0.10868595  0.86830204     0.05500
C775        C  0.39073191  0.13356268  0.84356485    -0.10400
C776        C  0.41523762  0.14805917  0.83850940    -0.12000
C777        C  0.43948072  0.13748247  0.85710463    -0.01800
C778        C  0.43857432  0.11317650  0.88308687    -0.10900
C779        C  0.36566308  0.09061768  0.86721055     0.05500
H780        H  0.37248683  0.14132428  0.82707533     0.07500
H781        H  0.41551380  0.16673441  0.81823955     0.10900
H782        H  0.45702714  0.10473208  0.89797595     0.11200
H783        H  0.41425986  0.07980180  0.90768157     0.07500
C784        C  0.35362672  0.08418881  0.82486817    -0.11600
C785        C  0.33534134  0.06231513  0.82125647    -0.10900
C786        C  0.32827654  0.04685213  0.86000222    -0.01800
C787        C  0.33831546  0.05469795  0.90307716    -0.12000
C788        C  0.35707753  0.07636058  0.90663090    -0.10400
H789        H  0.36009943  0.09451739  0.79387658     0.07500
H790        H  0.32813108  0.05621627  0.78762182     0.11200
H791        H  0.33352573  0.04262287  0.93318805     0.10900
H792        H  0.36607508  0.08094067  0.93967980     0.07500
C793        C  0.47899433  0.24991573  0.15091151    -0.11600
C794        C  0.49484320  0.26095970  0.11558159     0.05500
C795        C  0.51081351  0.28440484  0.12422742    -0.10400
C796        C  0.51251697  0.29544016  0.16831248    -0.12000
C797        C  0.49834385  0.28310388  0.20455686    -0.01800
C798        C  0.48078131  0.26086946  0.19513129    -0.10900
C799        C  0.49818225  0.24586668  0.07201932     0.05500
H800        H  0.52303653  0.29335109  0.09720050     0.07500
H801        H  0.52595678  0.31273325  0.17439526     0.10900
H802        H  0.46934608  0.25110275  0.22232979     0.11200
H803        H  0.46665628  0.23177456  0.14499487     0.07500
C804        C  0.52459088  0.23920378  0.05769364    -0.11600
C805        C  0.52883247  0.22534381  0.01670053    -0.10900
C806        C  0.50675351  0.21794377  0.98858418    -0.01800
C807        C  0.48009941  0.22387685  0.00337355    -0.12000
C808        C  0.47582005  0.23758460  0.04519639    -0.10400
H809        H  0.54208680  0.24476537  0.07840483     0.07500
H810        H  0.54962998  0.22092629  0.00666870     0.11200
H811        H  0.46271915  0.21827075  0.98246293     0.10900
H812        H  0.45523511  0.24228638  0.05606963     0.07500
C813        C  0.49301781  0.23351627  0.65548834    -0.11600
C814        C  0.50554358  0.21930940  0.61930557     0.05500
C815        C  0.51567025  0.19252626  0.62712495    -0.10400
C816        C  0.51430321  0.18070962  0.67088862    -0.12000
C817        C  0.50277471  0.19551674  0.70746361    -0.01800
C818        C  0.49163741  0.22177530  0.69896716    -0.10900
C819        C  0.50867810  0.23282519  0.57404167     0.05500
H820        H  0.52556365  0.18115394  0.59982447     0.07500
H821        H  0.52325468  0.16056827  0.67651524     0.10900
H822        H  0.48239651  0.23364525  0.72634707     0.11200
H823        H  0.48454803  0.25391057  0.65027721     0.07500
C824        C  0.50369111  0.21808319  0.53351245    -0.11600
C825        C  0.50701431  0.23068991  0.49093253    -0.10900
C826        C  0.51578802  0.25818939  0.48792116    -0.01800
C827        C  0.52069422  0.27305414  0.52836616    -0.12000
C828        C  0.51695703  0.26054458  0.57106984    -0.10400
H829        H  0.49705507  0.19682711  0.53476479     0.07500
H830        H  0.50324676  0.21868971  0.46024075     0.11200
H831        H  0.52743478  0.29427971  0.52694873     0.10900
H832        H  0.52114601  0.27235648  0.60179692     0.07500
C833        C  0.85757044  0.89737687  0.64506863    -0.11600
C834        C  0.86722902  0.88291080  0.68368999     0.05500
C835        C  0.85866441  0.89141686  0.72743324    -0.10400
C836        C  0.84252424  0.91493375  0.73269869    -0.12000
C837        C  0.83409833  0.93013734  0.69437456    -0.01800
C838        C  0.84092428  0.92073366  0.65038380    -0.10900
C839        C  0.88921793  0.86187031  0.67961347     0.05500
H840        H  0.86606804  0.88108885  0.75788878     0.07500
H841        H  0.83768282  0.92207323  0.76695227     0.10900
H842        H  0.83497559  0.93247915  0.62044563     0.11200
H843        H  0.86384759  0.89130478  0.61094145     0.07500
C844        C  0.88973177  0.83851844  0.70827729    -0.11600
C845        C  0.91327772  0.82220762  0.71170171    -0.10900
C846        C  0.93670547  0.82929318  0.68702209    -0.01800
C847        C  0.93560809  0.85137119  0.65608426    -0.12000
C848        C  0.91201903  0.86733660  0.65204110    -0.10400
H849        H  0.87240096  0.83372224  0.72973396     0.07500
H850        H  0.91384139  0.80539513  0.73606381     0.11200
H851        H  0.95356892  0.85717667  0.63684291     0.10900
H852        H  0.91244008  0.88527199  0.63002135     0.07500
C853        C  0.65008037  0.11550923  0.81278208    -0.11600
C854        C  0.65172323  0.10585500  0.76753740     0.05500
C855        C  0.63004176  0.11117596  0.73725415    -0.10400
C856        C  0.60652849  0.12470366  0.75268467    -0.12000
C857        C  0.60451107  0.13346749  0.79847651    -0.01800
C858        C  0.62681130  0.12928917  0.82802545    -0.10900
C859        C  0.67564204  0.08947295  0.75267719     0.05500
H860        H  0.63087350  0.10394473  0.70214802     0.07500
H861        H  0.58971401  0.12771645  0.72913123     0.10900
H862        H  0.62596699  0.13586241  0.86348859     0.11200
H863        H  0.66671602  0.11207604  0.83655290     0.07500
C864        C  0.68880348  0.09535081  0.71121330    -0.11600
C865        C  0.71182527  0.08033120  0.69802121    -0.10900
C866        C  0.72190140  0.05887523  0.72570532    -0.01800
C867        C  0.70832777  0.05253440  0.76662913    -0.12000
C868        C  0.68552995  0.06785187  0.78016284    -0.10400
H869        H  0.68162508  0.11195046  0.68952478     0.07500
H870        H  0.72183234  0.08559660  0.66616079     0.11200
H871        H  0.71568979  0.03616816  0.78863494     0.10900
H872        H  0.67551135  0.06273398  0.81207647     0.07500
C873        C  0.61016021  0.90686208  0.15796990    -0.11600
C874        C  0.61587198  0.88400281  0.18576765     0.05500
C875        C  0.63952631  0.88418457  0.21310155    -0.10400
C876        C  0.65633178  0.90752619  0.21449201    -0.12000
C877        C  0.64921669  0.93113955  0.18948977    -0.01800
C878        C  0.62651013  0.93031569  0.16021058    -0.10900
C879        C  0.59476432  0.86252750  0.19162753     0.05500
H880        H  0.64418590  0.86682182  0.23505465     0.07500
H881        H  0.67353496  0.90792525  0.23777524     0.10900
H882        H  0.62056582  0.94845113  0.14096568     0.11200
H883        H  0.59185666  0.90740373  0.13718938     0.07500
C884        C  0.58393043  0.85792788  0.23540732    -0.11600
C885        C  0.56021816  0.84246125  0.24070867    -0.10900
C886        C  0.54721255  0.83075239  0.20250011    -0.01800
C887        C  0.55904193  0.83360152  0.15902499    -0.12000
C888        C  0.58248992  0.84975049  0.15352574    -0.10400
H889        H  0.59273093  0.86789572  0.26518231     0.07500
H890        H  0.55133084  0.84059593  0.27453471     0.11200
H891        H  0.54912541  0.82500131  0.12907513     0.10900
H892        H  0.59039920  0.85323663  0.11939973     0.07500
C893        C  0.60103563  0.11668645  0.30550661    -0.11600
C894        C  0.61190208  0.14295790  0.29668692     0.05500
C895        C  0.63697064  0.14486389  0.27375264    -0.10400
C896        C  0.65036381  0.12111254  0.25830921    -0.12000
C897        C  0.63935362  0.09489816  0.26652728    -0.01800
C898        C  0.61483292  0.09283915  0.29106938    -0.10900
C899        C  0.59676663  0.16840947  0.30960321     0.05500
H900        H  0.64570043  0.16483207  0.26623698     0.07500
H901        H  0.66914962  0.12322422  0.23920477     0.10900
H902        H  0.60573513  0.07286551  0.29723000     0.11200
H903        H  0.58177382  0.11465703  0.32322921     0.07500
C904        C  0.56925932  0.17169147  0.29734247    -0.11600
C905        C  0.55534606  0.19621234  0.30743197    -0.10900
C906        C  0.56850775  0.21786698  0.33067125    -0.01800
C907        C  0.59596323  0.21440826  0.34342309    -0.12000
C908        C  0.60998902  0.19004510  0.33266246    -0.10400
H909        H  0.55867054  0.15546240  0.27909015     0.07500
H910        H  0.53421004  0.19815320  0.29721630     0.11200
H911        H  0.60670470  0.23064231  0.36139575     0.10900
H912        H  0.63116974  0.18801152  0.34257844     0.07500
C913        C  0.56364321  0.04367318  0.09035597    -0.11600
C914        C  0.57090609  0.04465351  0.04374473     0.05500
C915        C  0.59695035  0.03562939  0.03056709    -0.10400
C916        C  0.61640104  0.02920352  0.06367620    -0.12000
C917        C  0.61003584  0.03142821  0.11042340    -0.01800
C918        C  0.58310967  0.03699251  0.12355851    -0.10900
C919        C  0.55465336  0.06116699  0.01099002     0.05500
H920        H  0.60321316  0.03625551  0.99500866     0.07500
H921        H  0.63695815  0.02434322  0.05276488     0.10900
H922        H  0.57768948  0.03847711  0.15945345     0.11200
H923        H  0.54357802  0.05026058  0.10130674     0.07500
C924        C  0.55282756  0.05371974  0.96445005    -0.11600
C925        C  0.54488035  0.07321395  0.93164516    -0.10900
C926        C  0.53898689  0.10038940  0.94509539    -0.01800
C927        C  0.53819875  0.10688818  0.99198772    -0.12000
C928        C  0.54592250  0.08750667  0.02455650    -0.10400
H929        H  0.55932154  0.03346177  0.95319524     0.07500
H930        H  0.54541658  0.06763481  0.89570622     0.11200
H931        H  0.53336776  0.12758806  0.00342901     0.10900
H932        H  0.54741475  0.09404575  0.05997876     0.07500
C933        C  0.79023696  0.01363394  0.92501408    -0.11600
C934        C  0.76801190  0.99680295  0.93628423     0.05500
C935        C  0.75787983  0.97823144  0.90361748    -0.10400
C936        C  0.76880456  0.97761636  0.85950680    -0.12000
C937        C  0.79019077  0.99542649  0.84747046    -0.01800
C938        C  0.80133391  0.01286316  0.88102973    -0.10900
C939        C  0.75411419  0.00014463  0.98074190     0.05500
H940        H  0.74066023  0.96516782  0.91153778     0.07500
H941        H  0.75981451  0.96391616  0.83437395     0.10900
H942        H  0.81782856  0.02677598  0.87278247     0.11200
H943        H  0.79854522  0.02789833  0.94995213     0.07500
C944        C  0.74710407  0.97713907  0.00730596    -0.11600
C945        C  0.73359213  0.98062364  0.04907219    -0.10900
C946        C  0.72664563  0.00715717  0.06457453    -0.01800
C947        C  0.73335820  0.03008675  0.03750577    -0.12000
C948        C  0.74702269  0.02660879  0.99609894    -0.10400
H949        H  0.75241087  0.95653829  0.99600704     0.07500
H950        H  0.72879505  0.96261338  0.06935777     0.11200
H951        H  0.72828620  0.05081050  0.04849260     0.10900
H952        H  0.75180395  0.04461174  0.97575473     0.07500
C953        C  0.76301014  0.01445014  0.48256749    -0.11600
C954        C  0.73989530  0.99770523  0.47757734     0.05500
C955        C  0.72852507  0.98520898  0.51634303    -0.10400
C956        C  0.74007406  0.98945579  0.55953802    -0.12000
C957        C  0.76296724  0.00657902  0.56468933    -0.01800
C958        C  0.77437421  0.01895381  0.52574742    -0.10900
C959        C  0.72761420  0.99375421  0.43189113     0.05500
H960        H  0.71079159  0.97209692  0.51313132     0.07500
H961        H  0.73080087  0.97969916  0.58897747     0.10900
H962        H  0.79196039  0.03229040  0.52866254     0.11200
H963        H  0.77195136  0.02450253  0.45309768     0.07500
C964        C  0.69959489  0.99807554  0.42484496    -0.11600
C965        C  0.68865130  0.99714461  0.38055824    -0.10900
C966        C  0.70559160  0.99169118  0.34286015    -0.01800
C967        C  0.73336344  0.98596226  0.35050671    -0.12000
C968        C  0.74425810  0.98711421  0.39451047    -0.10400
H969        H  0.68643480  0.00334404  0.45332681     0.07500
H970        H  0.66724200  0.00174886  0.37566165     0.11200
H971        H  0.74697911  0.98149536  0.32225141     0.10900
H972        H  0.76584727  0.98334663  0.39928902     0.07500
C973        C  0.06456130  0.37910121  0.88513857    -0.11600
C974        C  0.08874884  0.36855287  0.86619749     0.05500
C975        C  0.08806332  0.34281423  0.84391085    -0.10400
C976        C  0.06345358  0.32846127  0.83908432    -0.12000
C977        C  0.03904808  0.33997603  0.85540237    -0.01800
C978        C  0.03992973  0.36510653  0.87936027    -0.10900
C979        C  0.11333984  0.38629527  0.86405425     0.05500
H980        H  0.10642469  0.33426443  0.82895717     0.07500
H981        H  0.06325861  0.30911140  0.82051565     0.10900
H982        H  0.02138567  0.37427449  0.89263257     0.11200
H983        H  0.06439392  0.39901237  0.90199971     0.07500
C984        C  0.12574061  0.39112515  0.82147141    -0.11600
C985        C  0.14451511  0.41247809  0.81641208    -0.10900
C986        C  0.15177887  0.42892545  0.85401387    -0.01800
C987        C  0.14129329  0.42268457  0.89745535    -0.12000
C988        C  0.12198537  0.40163567  0.90239436    -0.10400
H989        H  0.11923723  0.37991723  0.79126287     0.07500
H990        H  0.15203245  0.41735432  0.78248564     0.11200
H991        H  0.14621919  0.43556930  0.92666201     0.10900
H992        H  0.11271030  0.39832539  0.93558536     0.07500
C993        C  0.88453148  0.12345342  0.78177609    -0.11600
C994        C  0.86942940  0.14768884  0.78972368     0.05500
C995        C  0.84087146  0.14664940  0.78375718    -0.10400
C996        C  0.82808517  0.12236214  0.76884494    -0.12000
C997        C  0.84348823  0.09842299  0.76072831    -0.01800
C998        C  0.87173013  0.09918669  0.76821824    -0.10900
C999        C  0.88371526  0.17378921  0.80303499     0.05500
H1000       H  0.82829343  0.16455024  0.79043556     0.07500
H1001       H  0.80625037  0.12234250  0.76344268     0.10900
H1002       H  0.88429082  0.08121286  0.76166118     0.11200
H1003       H  0.90649963  0.12320808  0.78442935     0.07500
C1004       C  0.90879736  0.17292919  0.82671668    -0.11600
C1005       C  0.92283629  0.19710743  0.83744281    -0.10900
C1006       C  0.91178542  0.22289213  0.82631202    -0.01800
C1007       C  0.88666477  0.22405219  0.80329710    -0.12000
C1008       C  0.87295601  0.19980695  0.79126651    -0.10400
H1009       H  0.91759854  0.15360701  0.83781376     0.07500
H1010       H  0.94201897  0.19564240  0.85569613     0.11200
H1011       H  0.87779420  0.24374052  0.79402137     0.10900
H1012       H  0.85414188  0.20159287  0.77215439     0.07500
C1013       C  0.07632653  0.12238576  0.40750137    -0.11600
C1014       C  0.09167548  0.11295144  0.36982884     0.05500
C1015       C  0.08569587  0.12332230  0.32605458    -0.10400
C1016       C  0.06340860  0.14081914  0.31946422    -0.12000
C1017       C  0.04704710  0.14880587  0.35659813    -0.01800
C1018       C  0.05427993  0.14043849  0.40095994    -0.10900
C1019       C  0.11068252  0.08922400  0.37425950     0.05500
H1020       H  0.09686667  0.11611311  0.29635030     0.07500
H1021       H  0.05785281  0.14671864  0.28488297     0.10900
H1022       H  0.04155364  0.14592769  0.42989441     0.11200
H1023       H  0.08048875  0.11461096  0.44157216     0.07500
C1024       C  0.13597453  0.08898987  0.35154628    -0.11600
C1025       C  0.15128992  0.06459752  0.34830602    -0.10900
C1026       C  0.14117149  0.03996920  0.36672905    -0.01800
C1027       C  0.11664691  0.04057647  0.39150982    -0.12000
C1028       C  0.10169770  0.06499218  0.39562985    -0.10400
H1029       H  0.14330227  0.10740383  0.33470069     0.07500
H1030       H  0.17006570  0.06457757  0.32884483     0.11200
H1031       H  0.10846871  0.02182693  0.40613160     0.10900
H1032       H  0.08215888  0.06444680  0.41282556     0.07500
C1033       C  0.78514034  0.10083842  0.25588585    -0.11600
C1034       C  0.81012315  0.09205281  0.23713488     0.05500
C1035       C  0.81043285  0.06846043  0.20896485    -0.10400
C1036       C  0.78652818  0.05377403  0.20055327    -0.12000
C1037       C  0.76171006  0.06275629  0.21910481    -0.01800
C1038       C  0.76113218  0.08652055  0.24648731    -0.10900
C1039       C  0.83585009  0.10663062  0.24877982     0.05500
H1040       H  0.82910409  0.06137155  0.19309866     0.07500
H1041       H  0.78732885  0.03573335  0.17864964     0.10900
H1042       H  0.74216314  0.09374922  0.26124151     0.11200
H1043       H  0.78412980  0.11846830  0.27860376     0.07500
C1044       C  0.83604020  0.13523599  0.25718082    -0.11600
C1045       C  0.85959766  0.14822694  0.27321730    -0.10900
C1046       C  0.88354236  0.13296894  0.28023478    -0.01800
C1047       C  0.88383986  0.10477416  0.26928456    -0.12000
C1048       C  0.86023730  0.09170883  0.25416587    -0.10400
H1049       H  0.81785871  0.14754594  0.25219040     0.07500
H1050       H  0.85893936  0.17006222  0.28096977     0.11200
H1051       H  0.90199531  0.09243281  0.27459782     0.10900
H1052       H  0.86091194  0.06964191  0.24878963     0.07500
C1053       C  0.90852579  0.06564098  0.45929362    -0.11600
C1054       C  0.92494009  0.06240700  0.49828836     0.05500
C1055       C  0.95083340  0.07474071  0.49937084    -0.10400
C1056       C  0.95932243  0.09176984  0.46336701    -0.12000
C1057       C  0.94169153  0.09705646  0.42657693    -0.01800
C1058       C  0.91671190  0.08311442  0.42396147    -0.10900
C1059       C  0.91230447  0.05217405  0.54085265     0.05500
H1060       H  0.96358545  0.07277637  0.52952144     0.07500
H1061       H  0.97846999  0.10269002  0.46622960     0.10900
H1062       H  0.90273719  0.08723339  0.39598192     0.11200
H1063       H  0.88830170  0.05676230  0.45815910     0.07500
C1064       C  0.90733832  0.07113103  0.57620347    -0.11600
C1065       C  0.89025450  0.06425385  0.61246761    -0.10900
C1066       C  0.87835497  0.03806452  0.61467981    -0.01800
C1067       C  0.88461087  0.01835318  0.58101230    -0.12000
C1068       C  0.90121854  0.02553256  0.54376818    -0.10400
H1069       H  0.91517539  0.09195012  0.57408086     0.07500
H1070       H  0.88531446  0.07982038  0.63784485     0.11200
H1071       H  0.87513983  0.99821577  0.58181860     0.10900
H1072       H  0.90446500  0.01080775  0.51636544     0.07500
C1073       C  0.96590121  0.19202557  0.12137406    -0.11600
C1074       C  0.98168432  0.21532421  0.11098001     0.05500
C1075       C  0.99908976  0.22615444  0.14461144    -0.10400
C1076       C  0.99957939  0.21481689  0.18861633    -0.12000
C1077       C  0.98284805  0.19227889  0.19967634    -0.01800
C1078       C  0.96654650  0.18053942  0.16523107    -0.10900
C1079       C  0.97804459  0.22968661  0.06665624     0.05500
H1080       H  0.01129163  0.24421462  0.13753070     0.07500
H1081       H  0.01236904  0.22433260  0.21442192     0.10900
H1082       H  0.95343301  0.16319663  0.17264305     0.11200
H1083       H  0.95249054  0.18315074  0.09581697     0.07500
C1084       C  0.00045889  0.23854343  0.04058531    -0.11600
C1085       C  0.99639044  0.25218374  0.99875752    -0.10900
C1086       C  0.96984500  0.25748402  0.98284587    -0.01800
C1087       C  0.94757554  0.24906283  0.00963139    -0.12000
C1088       C  0.95163026  0.23526494  0.05084619    -0.10400
H1089       H  0.02104391  0.23452556  0.05224075     0.07500
H1090       H  0.01391896  0.25842506  0.97883855     0.11200
H1091       H  0.92683659  0.25285436  0.99853804     0.10900
H1092       H  0.93401753  0.22917064  0.07070993     0.07500
C1093       C  0.98048812  0.24267647  0.65093182    -0.11600
C1094       C  0.97413224  0.25945990  0.61335470     0.05500
C1095       C  0.97053533  0.28796814  0.62050066    -0.10400
C1096       C  0.97186608  0.29910098  0.66493669    -0.12000
C1097       C  0.97702753  0.28188936  0.70270545    -0.01800
C1098       C  0.98192779  0.25369220  0.69487922    -0.10900
C1099       C  0.97045499  0.24662746  0.56752157     0.05500
H1100       H  0.96565414  0.30141315  0.59206144     0.07500
H1101       H  0.96799944  0.32089402  0.66987509     0.10900
H1102       H  0.98616191  0.23978089  0.72299714     0.11200
H1103       H  0.98403818  0.22079277  0.64642597     0.07500
C1104       C  0.98136896  0.25876140  0.52798793    -0.11600
C1105       C  0.97888896  0.24561405  0.48544630    -0.10900
C1106       C  0.96523403  0.22020963  0.48154961    -0.01800
C1107       C  0.95389555  0.20838989  0.52095075    -0.12000
C1108       C  0.95651467  0.22142385  0.56341523    -0.10400
H1109       H  0.99227471  0.27809277  0.53012277     0.07500
H1110       H  0.98754239  0.25544468  0.45552923     0.11200
H1111       H  0.94302020  0.18903124  0.51899975     0.10900
H1112       H  0.94744870  0.21180421  0.59316851     0.07500
C1113       C  0.87130437  0.56969999  0.15904191    -0.11600
C1114       C  0.86550009  0.59260381  0.18686484     0.05500
C1115       C  0.84275007  0.59167134  0.21614142    -0.10400
C1116       C  0.82713079  0.56759411  0.21954285    -0.12000
C1117       C  0.83455744  0.54399713  0.19464362    -0.01800
C1118       C  0.85621509  0.54547957  0.16339709    -0.10900
C1119       C  0.88628790  0.61452042  0.19172374     0.05500
H1120       H  0.83802514  0.60903157  0.23815020     0.07500
H1121       H  0.81058513  0.56675174  0.24403110     0.10900
H1122       H  0.86223108  0.52743762  0.14389360     0.11200
H1123       H  0.88892425  0.56974051  0.13670988     0.07500
C1124       C  0.89790686  0.61912626  0.23502039    -0.11600
C1125       C  0.92210473  0.63393451  0.23922331    -0.10900
C1126       C  0.93477349  0.64507445  0.20041454    -0.01800
C1127       C  0.92198792  0.64265774  0.15754189    -0.12000
C1128       C  0.89804981  0.62709967  0.15310246    -0.10400
H1129       H  0.88948129  0.60938207  0.26520072     0.07500
H1130       H  0.93164713  0.63563131  0.27261645     0.11200
H1131       H  0.93155192  0.65100289  0.12716504     0.10900
H1132       H  0.88950258  0.62368452  0.11933415     0.07500
C1133       C  0.67402153  0.41146103  0.23213369    -0.11600
C1134       C  0.67481308  0.38283966  0.24002183     0.05500
C1135       C  0.69976808  0.36888630  0.23468622    -0.10400
C1136       C  0.72336114  0.38318524  0.22272889    -0.12000
C1137       C  0.72260776  0.41179251  0.21541847    -0.01800
C1138       C  0.69763079  0.42575435  0.21987171    -0.10900
C1139       C  0.64999016  0.36774533  0.25517141     0.05500
H1140       H  0.70111462  0.34681604  0.23956449     0.07500
H1141       H  0.74225225  0.37177070  0.21936060     0.10900
H1142       H  0.69637497  0.44780082  0.21447457     0.11200
H1143       H  0.65530612  0.42301047  0.23655723     0.07500
C1144       C  0.65204907  0.34596686  0.28682500    -0.11600
C1145       C  0.62873904  0.33261534  0.30283510    -0.10900
C1146       C  0.60275782  0.34093997  0.28809650    -0.01800
C1147       C  0.60063352  0.36227306  0.25575390    -0.12000
C1148       C  0.62397680  0.37540701  0.23927054    -0.10400
H1149       H  0.67162664  0.33977814  0.30053030     0.07500
H1150       H  0.63102787  0.31646607  0.32814223     0.11200
H1151       H  0.58086971  0.36909712  0.24364694     0.10900
H1152       H  0.62159367  0.39167889  0.21424014     0.07500
C1153       C  0.87793567  0.35677506  0.31115926    -0.11600
C1154       C  0.86954629  0.33092290  0.29450984     0.05500
C1155       C  0.84643602  0.32944041  0.26624705    -0.10400
C1156       C  0.83280991  0.35341631  0.25295321    -0.12000
C1157       C  0.84169486  0.37934933  0.26827802    -0.01800
C1158       C  0.86393723  0.38081001  0.29849568    -0.10900
C1159       C  0.88533221  0.30558873  0.30485784     0.05500
H1160       H  0.83962219  0.30980663  0.25279137     0.07500
H1161       H  0.81577954  0.35176889  0.22944813     0.10900
H1162       H  0.87137439  0.40059438  0.31028516     0.11200
H1163       H  0.89558205  0.35838655  0.33332250     0.07500
C1164       C  0.91376011  0.30496472  0.29902649    -0.11600
C1165       C  0.92850723  0.28070528  0.30714200    -0.10900
C1166       C  0.91512726  0.25679808  0.32202125    -0.01800
C1167       C  0.88668264  0.25746404  0.32777411    -0.12000
C1168       C  0.87192635  0.28153547  0.31893567    -0.10400
H1169       H  0.92450182  0.32315933  0.28757160     0.07500
H1170       H  0.95040909  0.28079115  0.30264246     0.11200
H1171       H  0.87580396  0.23931901  0.33911620     0.10900
H1172       H  0.85003549  0.28147607  0.32363800     0.07500
C1173       C  0.91392226  0.41008414  0.09432985    -0.11600
C1174       C  0.91508442  0.42517100  0.05308385     0.05500
C1175       C  0.89998794  0.44982838  0.04980765    -0.10400
C1176       C  0.88148685  0.45708044  0.08411635    -0.12000
C1177       C  0.87879004  0.44048930  0.12299933    -0.01800
C1178       C  0.89605435  0.41786688  0.12913507    -0.10900
C1179       C  0.92744915  0.41235878  0.01157785     0.05500
H1180       H  0.90098593  0.46249807  0.01936345     0.07500
H1181       H  0.86822372  0.47471430  0.07919988     0.10900
H1182       H  0.89388043  0.40472374  0.15891293     0.11200
H1183       H  0.92480036  0.39083222  0.09835838     0.07500
C1184       C  0.94862665  0.39288129  0.01575702    -0.11600
C1185       C  0.95422542  0.37461447  0.97998136    -0.10900
C1186       C  0.93967330  0.37642154  0.93880280    -0.01800
C1187       C  0.92101964  0.39787238  0.93229032    -0.12000
C1188       C  0.91470023  0.41555065  0.96852526    -0.10400
H1189       H  0.95962104  0.39044712  0.04768506     0.07500
H1190       H  0.96897935  0.35826151  0.98514627     0.11200
H1191       H  0.90954062  0.39937773  0.90062308     0.10900
H1192       H  0.89812153  0.42997495  0.96367668     0.07500
C1193       C  0.61579392  0.58271976  0.73945819    -0.11600
C1194       C  0.61156899  0.59476362  0.69637698     0.05500
C1195       C  0.62502976  0.58365656  0.65794486    -0.10400
C1196       C  0.64125691  0.55994418  0.66225152    -0.12000
C1197       C  0.64362156  0.54679169  0.70483658    -0.01800
C1198       C  0.63146793  0.55886792  0.74356061    -0.10900
C1199       C  0.58980641  0.61571904  0.69123276     0.05500
H1200       H  0.62194184  0.59258549  0.62434508     0.07500
H1201       H  0.65027507  0.55082795  0.63192719     0.10900
H1202       H  0.63302686  0.54904072  0.77678513     0.11200
H1203       H  0.60535468  0.59057840  0.76947482     0.07500
C1204       C  0.56850712  0.61084951  0.66013834    -0.11600
C1205       C  0.54461004  0.62641135  0.66236650    -0.10900
C1206       C  0.54186271  0.64752155  0.69494741    -0.01800
C1207       C  0.56387957  0.65394730  0.72364243    -0.12000
C1208       C  0.58763566  0.63791194  0.72216030    -0.10400
H1209       H  0.56947131  0.59361950  0.63652559     0.07500
H1210       H  0.52767970  0.62105255  0.64022127     0.11200
H1211       H  0.56191282  0.66990704  0.74945437     0.10900
H1212       H  0.60374853  0.64190589  0.74666586     0.07500
C1213       C  0.63413013  0.32829671  0.77622484    -0.11600
C1214       C  0.60941152  0.32958691  0.80056615     0.05500
C1215       C  0.59799759  0.35557425  0.81001761    -0.10400
C1216       C  0.61025181  0.37956573  0.79369020    -0.12000
C1217       C  0.63428165  0.37819211  0.76756622    -0.01800
C1218       C  0.64644324  0.35235137  0.75992998    -0.10900
C1219       C  0.59490948  0.30396038  0.81412213     0.05500
H1220       H  0.57932620  0.35736753  0.82954908     0.07500
H1221       H  0.60044984  0.39916924  0.80052296     0.10900
H1222       H  0.66494848  0.35061170  0.73993395     0.11200
H1223       H  0.64339416  0.30862052  0.76808169     0.07500
C1224       C  0.56634654  0.30235152  0.81067092    -0.11600
C1225       C  0.55264926  0.27809674  0.82207402    -0.10900
C1226       C  0.56718800  0.25479846  0.83691270    -0.01800
C1227       C  0.59572263  0.25637395  0.84052637    -0.12000
C1228       C  0.60941600  0.28069406  0.82937041    -0.10400
H1229       H  0.55456237  0.31969142  0.79823248     0.07500
H1230       H  0.53067675  0.27749799  0.81871635     0.11200
H1231       H  0.60750366  0.23883220  0.85221684     0.10900
H1232       H  0.63136482  0.28133175  0.83299244     0.07500
C1233       C  0.57559265  0.45232441  0.54853480    -0.11600
C1234       C  0.56164268  0.42701239  0.54847824     0.05500
C1235       C  0.56257909  0.41047476  0.58791942    -0.10400
C1236       C  0.57935869  0.41766764  0.62470104    -0.12000
C1237       C  0.59488548  0.44184851  0.62319033    -0.01800
C1238       C  0.59198855  0.45979992  0.58590325    -0.10900
C1239       C  0.55130761  0.41485953  0.50516359     0.05500
H1240       H  0.55241600  0.39068521  0.58853461     0.07500
H1241       H  0.58170691  0.40340165  0.65297791     0.10900
H1242       H  0.60419899  0.47832841  0.58392599     0.11200
H1243       H  0.57529263  0.46533128  0.51841196     0.07500
C1244       C  0.52634127  0.40066635  0.50376810    -0.11600
C1245       C  0.52024880  0.38306793  0.46697868    -0.10900
C1246       C  0.53930954  0.37908393  0.43180201    -0.01800
C1247       C  0.56330139  0.39467742  0.43158812    -0.12000
C1248       C  0.56908713  0.41270623  0.46762721    -0.10400
H1249       H  0.51239208  0.40188681  0.53243370     0.07500
H1250       H  0.50176675  0.37092190  0.46787572     0.11200
H1251       H  0.57832399  0.39163892  0.40485485     0.10900
H1252       H  0.58862464  0.42304359  0.46810217     0.07500
C1253       C  0.78458144  0.37653668  0.71363385    -0.11600
C1254       C  0.80114470  0.38588484  0.74956658     0.05500
C1255       C  0.79378261  0.40997037  0.77333251    -0.10400
C1256       C  0.77037944  0.42472308  0.76097914    -0.12000
C1257       C  0.75363652  0.41538190  0.72508756    -0.01800
C1258       C  0.76090580  0.39101015  0.70175597    -0.10900
C1259       C  0.82576394  0.37031377  0.76325585     0.05500
H1260       H  0.80631328  0.41745754  0.80127300     0.07500
H1261       H  0.76526292  0.44328791  0.77979916     0.10900
H1262       H  0.74837036  0.38318823  0.67409376     0.11200
H1263       H  0.78978167  0.35783637  0.69524826     0.07500
C1264       C  0.82812019  0.36055579  0.80819229    -0.11600
C1265       C  0.85186212  0.34728098  0.82253382    -0.10900
C1266       C  0.87406315  0.34387155  0.79248753    -0.01800
C1267       C  0.87147463  0.35310297  0.74703999    -0.12000
C1268       C  0.84735418  0.36601669  0.73241855    -0.10400
H1269       H  0.81162005  0.36348172  0.83236502     0.07500
H1270       H  0.85308056  0.34041276  0.85777471     0.11200
H1271       H  0.88818985  0.35077216  0.72314514     0.10900
H1272       H  0.84585675  0.37345631  0.69753108     0.07500
C1273       C  0.69517438  0.46182709  0.92705365    -0.11600
C1274       C  0.71669299  0.47999018  0.93692112     0.05500
C1275       C  0.72423223  0.49959866  0.90404435    -0.10400
C1276       C  0.71168049  0.49982990  0.86103669    -0.12000
C1277       C  0.69123753  0.48058485  0.85026007    -0.01800
C1278       C  0.68251880  0.46215601  0.88418419    -0.10900
C1279       C  0.73243269  0.47698878  0.97998065     0.05500
H1280       H  0.74075200  0.51380443  0.91072893     0.07500
H1281       H  0.71871126  0.51442096  0.83563605     0.10900
H1282       H  0.66676732  0.44716902  0.87696330     0.11200
H1283       H  0.68861986  0.44683173  0.95216390     0.07500
C1284       C  0.74043560  0.50007879  0.00588299    -0.11600
C1285       C  0.75458504  0.49664865  0.04723739    -0.10900
C1286       C  0.76117455  0.47009911  0.06297419    -0.01800
C1287       C  0.75406428  0.44717454  0.03599661    -0.12000
C1288       C  0.73981838  0.45058365  0.99513004    -0.10400
H1289       H  0.73508971  0.52068158  0.99479922     0.07500
H1290       H  0.75984527  0.51467429  0.06730434     0.11200
H1291       H  0.75890248  0.42641958  0.04698446     0.10900
H1292       H  0.73453491  0.43246404  0.97529823     0.07500
C1293       C  0.71655059  0.45586597  0.48477577    -0.11600
C1294       C  0.73808339  0.47458553  0.47870971     0.05500
C1295       C  0.74693607  0.49017872  0.51646154    -0.10400
C1296       C  0.73447613  0.48713758  0.55932582    -0.12000
C1297       C  0.71301597  0.46828469  0.56543331    -0.01800
C1298       C  0.70419824  0.45272337  0.52758893    -0.10900
C1299       C  0.75085256  0.47788064  0.43286175     0.05500
H1300       H  0.76331318  0.50491676  0.51270395     0.07500
H1301       H  0.74186854  0.49935334  0.58782035     0.10900
H1302       H  0.68795086  0.43781902  0.53114903     0.11200
H1303       H  0.70951360  0.44329286  0.45644840     0.07500
C1304       C  0.77935388  0.47898517  0.42757625    -0.11600
C1305       C  0.79104988  0.48018144  0.38371142    -0.10900
C1306       C  0.77440353  0.48062155  0.34447115    -0.01800
C1307       C  0.74592054  0.48054480  0.35015646    -0.12000
C1308       C  0.73434387  0.47909890  0.39365963    -0.10400
H1309       H  0.79258067  0.47798460  0.45726229     0.07500
H1310       H  0.81302800  0.48013246  0.38047984     0.11200
H1311       H  0.73239060  0.48086437  0.32080110     0.10900
H1312       H  0.71235119  0.47873698  0.39663453     0.07500
loop_ 
_geom_bond_atom_site_label_1 
_geom_bond_atom_site_label_2 
_geom_bond_distance 
_geom_bond_site_symmetry_2 
_ccdc_geom_bond_type 
O1           C16   1.260       .  A
O1           Al9   1.899       .  S
C2           O12   1.265       .  A
C2            O3   1.266       .  A
C2         C1277   1.477       .  S
O3           Al5   1.920       .  S
O4            C6   1.263       .  A
O4           Al5   1.903       .  S
Al5          O13   1.922       .  S
Al5          O15   1.912       .  S
Al5          O14   1.785       .  S
C6           O19   1.263       .  A
C6         C1257   1.483       .  S
O7           C17   1.259       .  A
O7           Al9   1.904       .  S
O8           C21   1.265       .  A
O8          Al18   1.912       .  S
Al9          O22   1.915       .  S
Al9          O19   1.911       .  S
Al9          O14   1.781       .  S
O10          C17   1.258       .  A
O10         Al18   1.905       .  S
O11          C20   1.259       .  A
O11         Al18   1.900       .  S
O12         Al18   1.899       .  S
O13          C20   1.263       .  A
O14         Al18   1.784       .  S
O15          C16   1.261       .  A
C16        C1297   1.485       .  S
C17        C1217   1.481       .  S
C20        C1197   1.473       .  S
C21          O22   1.266       .  A
C21        C1237   1.467       .  S
O23          C38   1.263       .  A
O23         Al31   1.883       .  S
C24          O34   1.256       .  A
C24          O25   1.267       .  A
C24        C1306   1.484       .  S
O25         Al27   1.935       .  S
O26          C28   1.259       .  A
O26         Al27   1.907       .  S
Al27         O35   1.881       .  S
Al27         O37   1.929       .  S
Al27         O36   1.789       .  S
C28          O41   1.256       .  A
C28        C1157   1.476       .  S
O29          C39   1.264       .  A
O29         Al31   1.886       .  S
O30          C43   1.258       .  A
O30         Al40   1.906       .  S
Al31         O44   1.898       .  S
Al31         O41   1.897       .  S
Al31         O36   1.778       .  S
O32          C39   1.271       .  A
O32         Al40   1.938       .  S
O33          C42   1.261       .  A
O33         Al40   1.925       .  S
O34         Al40   1.865       .  S
O35          C42   1.255       .  A
O36         Al40   1.788       .  S
O37          C38   1.267       .  A
C38        C1177   1.457       .  S
C39        C1137   1.481       .  S
C42        C1117   1.472       .  S
C43          O44   1.257       .  A
C43        C1286   1.478       .  S
O45          C60   1.262       .  A
O45         Al53   1.901       .  S
C46          O56   1.264       .  A
C46          O47   1.266       .  A
C46        C1077   1.480       .  S
O47         Al49   1.922       .  S
O48          C50   1.263       .  A
O48         Al49   1.907       .  S
Al49         O57   1.921   1_655  S
Al49         O59   1.905       .  S
Al49         O58   1.785       .  S
C50          O63   1.261       .  A
C50        C1166   1.479       .  S
O51          C61   1.259       .  A
O51         Al53   1.901       .  S
O52          C65   1.266       .  A
O52         Al62   1.917       .  S
Al53         O66   1.913       .  S
Al53         O63   1.901       .  S
Al53         O58   1.777       .  S
O54          C61   1.258       .  A
O54         Al62   1.900       .  S
O55          C64   1.259       .  A
O55         Al62   1.902   1_455  S
O56         Al62   1.898       .  S
O57          C64   1.262       .  A
O58         Al62   1.785       .  S
O59          C60   1.260       .  A
C60        C1106   1.480       .  S
C61        C1046   1.473       .  S
C64        C1017   1.470       .  S
C65          O66   1.265       .  A
C65        C1057   1.469       .  S
O67          C82   1.265       .  A
O67         Al75   1.884       .  S
C68          O78   1.256       .  A
C68          O69   1.265       .  A
C68        C1097   1.482       .  S
O69         Al71   1.930       .  S
O70          C72   1.259       .  A
O70         Al71   1.918       .  S
Al71         O79   1.886       .  S
Al71         O81   1.936       .  S
Al71         O80   1.786       .  S
C72          O85   1.255       .  A
C72        C1266   1.483       .  S
O73          C83   1.266       .  A
O73         Al75   1.892       .  S
O74          C87   1.257       .  A
O74         Al84   1.912       .  S
Al75         O88   1.897       .  S
Al75         O85   1.896       .  S
Al75         O80   1.775       .  S
O76          C83   1.274       .  A
O76         Al84   1.945       .  S
O77          C86   1.262       .  A
O77         Al84   1.922   1_455  S
O78         Al84   1.862       .  S
O79          C86   1.257   1_655  A
O80         Al84   1.784       .  S
O81          C82   1.271       .  A
C82        C1186   1.460       .  S
C83        C1006   1.477       .  S
C86         C977   1.478       .  S
C87          O88   1.256       .  A
C87        C1086   1.480       .  S
O89         C104   1.264       .  A
O89         Al97   1.874       .  S
C90         O100   1.256       .  A
C90          O91   1.267       .  A
C90         C966   1.476       .  S
O91         Al93   1.929   1_565  S
O92          C94   1.256       .  A
O92         Al93   1.904       .  S
Al93        O101   1.867   1_545  S
Al93        O103   1.932       .  S
Al93        O102   1.784       .  S
C94         O107   1.256       .  A
C94         C897   1.479       .  S
O95         C105   1.264       .  A
O95         Al97   1.887       .  S
O96         C109   1.257   1_565  A
O96        Al106   1.897       .  S
Al97        O110   1.908       .  S
Al97        O107   1.906       .  S
Al97        O102   1.778       .  S
O98         C105   1.272       .  A
O98        Al106   1.939   1_545  S
O99         C108   1.260       .  A
O99        Al106   1.928       .  S
O100       Al106   1.857       .  S
O101        C108   1.252       .  A
O102       Al106   1.789   1_545  S
O103        C104   1.271       .  A
C104        C917   1.469       .  S
C105       C1037   1.469       .  S
C108        C877   1.472       .  S
C109        O110   1.258       .  A
C109        C946   1.475       .  S
O111        C126   1.260       .  A
O111       Al119   1.889       .  S
C112        O122   1.264   1_565  A
C112        O113   1.266       .  A
C112        C937   1.475       .  S
O113       Al115   1.918       .  S
O114        C116   1.262       .  A
O114       Al115   1.906   1_545  S
Al115       O123   1.920       .  S
Al115       O125   1.907       .  S
Al115       O124   1.781   1_565  S
C116        O129   1.261       .  A
C116        C866   1.477       .  S
O117        C127   1.261       .  A
O117       Al119   1.914       .  S
O118        C131   1.266       .  A
O118       Al128   1.914       .  S
Al119       O132   1.910       .  S
Al119       O129   1.903       .  S
Al119       O124   1.778       .  S
O120        C127   1.261       .  A
O120       Al128   1.908       .  S
O121        C130   1.259       .  A
O121       Al128   1.907   1_565  S
O122       Al128   1.893       .  S
O123        C130   1.261       .  A
O124       Al128   1.779       .  S
O125        C126   1.262   1_565  A
C126        C957   1.475       .  S
C127        C997   1.481       .  S
C130        C837   1.471       .  S
C131        O132   1.265       .  A
C131       C1066   1.467       .  S
O133        C148   1.263       .  A
O133       Al141   1.871       .  S
C134        O144   1.255       .  A
C134        O135   1.266       .  A
C134        C817   1.480       .  S
O135       Al137   1.933       .  S
O136        C138   1.257       .  A
O136       Al137   1.905       .  S
Al137       O145   1.879       .  S
Al137       O147   1.947       .  S
Al137       O146   1.786       .  S
C138        O151   1.255       .  A
C138        C857   1.480       .  S
O139        C149   1.265       .  A
O139       Al141   1.886       .  S
O140        C153   1.257       .  A
O140       Al150   1.910       .  S
Al141       O154   1.889       .  S
Al141       O151   1.901       .  S
Al141       O146   1.779       .  S
O142        C149   1.273       .  A
O142       Al150   1.942       .  S
O143        C152   1.262       .  A
O143       Al150   1.923       .  S
O144       Al150   1.862       .  S
O145        C152   1.256       .  A
O146       Al150   1.787       .  S
O147        C148   1.272       .  A
C148        C926   1.475       .  S
C149       C1226   1.481       .  S
C152        C777   1.476       .  S
C153        O154   1.255       .  A
C153        C806   1.477       .  S
O155        C170   1.260       .  A
O155       Al163   1.904       .  S
C156        O166   1.264       .  A
C156        O157   1.264       .  A
C156        C797   1.477       .  S
O157       Al159   1.913       .  S
O158        C160   1.263       .  A
O158       Al159   1.900       .  S
Al159       O167   1.914       .  S
Al159       O169   1.901       .  S
Al159       O168   1.783       .  S
C160        O173   1.267       .  A
C160        C906   1.487       .  S
O161        C171   1.260       .  A
O161       Al163   1.897       .  S
O162        C175   1.263       .  A
O162       Al172   1.911       .  S
Al163       O176   1.918       .  S
Al163       O173   1.928       .  S
Al163       O168   1.781       .  S
O164        C171   1.261       .  A
O164       Al172   1.913       .  S
O165        C174   1.261       .  A
O165       Al172   1.908       .  S
O166       Al172   1.900       .  S
O167        C174   1.262       .  A
O168       Al172   1.784       .  S
O169        C170   1.259       .  A
C170        C826   1.476       .  S
C171       C1146   1.480       .  S
C174        C766   1.469       .  S
C175        O176   1.265       .  A
C175       C1246   1.469       .  S
O177        C192   1.264       .  A
O177       Al185   1.884       .  S
C178        O188   1.256       .  A
C178        O179   1.264       .  A
C178        C697   1.473       .  S
O179       Al181   1.918       .  S
O180        C182   1.257       .  A
O180       Al181   1.902       .  S
Al181       O189   1.876       .  S
Al181       O191   1.918       .  S
Al181       O190   1.787       .  S
C182        O195   1.257       .  A
C182        C657   1.477       .  S
O183        C193   1.264       .  A
O183       Al185   1.891       .  S
O184        C197   1.257       .  A
O184       Al194   1.899       .  S
Al185       O198   1.910       .  S
Al185       O195   1.905       .  S
Al185       O190   1.779       .  S
O186        C193   1.273       .  A
O186       Al194   1.947       .  S
O187        C196   1.263       .  A
O187       Al194   1.931   1_545  S
O188       Al194   1.861       .  S
O189        C196   1.255   1_565  A
O190       Al194   1.787       .  S
O191        C192   1.266       .  A
C192        C686   1.465       .  S
C193        C737   1.480       .  S
C196       C1026   1.478       .  S
C197        O198   1.259       .  A
C197        C717   1.479       .  S
O199        C214   1.259       .  A
O199       Al207   1.885       .  S
C200        O210   1.265       .  A
C200        O201   1.269       .  A
C200        C726   1.476       .  S
O201       Al203   1.928       .  S
O202        C204   1.262       .  A
O202       Al203   1.900       .  S
Al203       O211   1.922   1_565  S
Al203       O213   1.910       .  S
Al203       O212   1.778       .  S
C204        O217   1.264       .  A
C204        C606   1.484       .  S
O205        C215   1.259       .  A
O205       Al207   1.909       .  S
O206        C219   1.265       .  A
O206       Al216   1.909       .  S
Al207       O220   1.925       .  S
Al207       O217   1.918       .  S
Al207       O212   1.775       .  S
O208        C215   1.258       .  A
O208       Al216   1.900       .  S
O209        C218   1.258       .  A
O209       Al216   1.902   1_545  S
O210       Al216   1.892       .  S
O211        C218   1.261       .  A
O212       Al216   1.778       .  S
O213        C214   1.262       .  A
C214        C706   1.471       .  S
C215        C617   1.466       .  S
C218        C786   1.468       .  S
C219        O220   1.268       .  A
C219        C637   1.465       .  S
O221        C236   1.262       .  A
O221       Al229   1.876       .  S
C222        O232   1.257       .  A
C222        O223   1.267       .  A
C222        C577   1.475       .  S
O223       Al225   1.934       .  S
O224        C226   1.258       .  A
O224       Al225   1.897       .  S
Al225       O233   1.870       .  S
Al225       O235   1.939       .  S
Al225       O234   1.782       .  S
C226        O239   1.259       .  A
C226        C526   1.471       .  S
O227        C237   1.262       .  A
O227       Al229   1.878       .  S
O228        C241   1.258       .  A
O228       Al238   1.899       .  S
Al229       O242   1.901       .  S
Al229       O239   1.902       .  S
Al229       O234   1.774       .  S
O230        C237   1.271       .  A
O230       Al238   1.940       .  S
O231        C240   1.262       .  A
O231       Al238   1.928       .  S
O232       Al238   1.863       .  S
O233        C240   1.254       .  A
O234       Al238   1.783       .  S
O235        C236   1.269       .  A
C236        C546   1.473       .  S
C237        C626   1.475       .  S
C240       C1206   1.467       .  S
C241        O242   1.259       .  A
C241        C566   1.470       .  S
O243        C258   1.260       .  A
O243       Al251   1.895       .  S
C244        O254   1.264       .  A
C244        O245   1.266       .  A
C244        C557   1.474       .  S
O245       Al247   1.914       .  S
O246        C248   1.262       .  A
O246       Al247   1.903       .  S
Al247       O255   1.918       .  S
Al247       O257   1.900       .  S
Al247       O256   1.787       .  S
C248        O261   1.261       .  A
C248        C497   1.473       .  S
O249        C259   1.259       .  A
O249       Al251   1.910       .  S
O250        C263   1.264       .  A
O250       Al260   1.906       .  S
Al251       O264   1.914       .  S
Al251       O261   1.899       .  S
Al251       O256   1.779       .  S
O252        C259   1.259       .  A
O252       Al260   1.908       .  S
O253        C262   1.259       .  A
O253       Al260   1.906       .  S
O254       Al260   1.892       .  S
O255        C262   1.261       .  A
O256       Al260   1.785       .  S
O257        C258   1.259       .  A
C258        C586   1.477       .  S
C259        C746   1.482       .  S
C262        C886   1.473       .  S
C263        O264   1.265       .  A
C263        C646   1.462       .  S
O265        C280   1.257       .  A
O265       Al273   1.887       .  S
C266        O276   1.265       .  A
C266        O267   1.265   1_455  A
C266        C466   1.478       .  S
O267       Al269   1.916       .  S
O268        C270   1.263       .  A
O268       Al269   1.900   1_455  S
Al269       O277   1.913       .  S
Al269       O279   1.907   1_655  S
Al269       O278   1.788   1_655  S
C270        O283   1.265       .  A
C270        C666   1.484       .  S
O271        C281   1.259       .  A
O271       Al273   1.913       .  S
O272        C285   1.264       .  A
O272       Al282   1.904       .  S
Al273       O286   1.909       .  S
Al273       O283   1.915       .  S
Al273       O278   1.778       .  S
O274        C281   1.260       .  A
O274       Al282   1.910       .  S
O275        C284   1.262       .  A
O275       Al282   1.917   1_655  S
O276       Al282   1.902       .  S
O277        C284   1.261       .  A
O278       Al282   1.787       .  S
O279        C280   1.258       .  A
C280        C486   1.475       .  S
C281        C417   1.484       .  S
C284       C1126   1.473       .  S
C285        O286   1.265       .  A
C285        C446   1.465       .  S
O287        C302   1.266       .  A
O287       Al295   1.879       .  S
C288        O298   1.256       .  A
C288        O289   1.264   1_655  A
C288        C477   1.476       .  S
O289       Al291   1.922       .  S
O290        C292   1.257       .  A
O290       Al291   1.912       .  S
Al291       O299   1.872   1_455  S
Al291       O301   1.934       .  S
Al291       O300   1.782       .  S
C292        O305   1.256       .  A
C292        C597   1.480       .  S
O293        C303   1.268       .  A
O293       Al295   1.892       .  S
O294        C307   1.256   1_655  A
O294       Al304   1.906       .  S
Al295       O308   1.903       .  S
Al295       O305   1.909       .  S
Al295       O300   1.779       .  S
O296        C303   1.275       .  A
O296       Al304   1.940   1_455  S
O297        C306   1.262       .  A
O297       Al304   1.925       .  S
O298       Al304   1.863       .  S
O299        C306   1.254       .  A
O300       Al304   1.783   1_455  S
O301        C302   1.272       .  A
C302        C677   1.468       .  S
C303        C397   1.475       .  S
C306        C846   1.471       .  S
C307        O308   1.256       .  A
C307        C457   1.478       .  S
O309        C324   1.266       .  A
O309       Al317   1.878       .  S
C310        O320   1.256       .  A
C310        O311   1.266       .  A
C310        C386   1.480       .  S
O311       Al313   1.929       .  S
O312        C314   1.256       .  A
O312       Al313   1.908       .  S
Al313       O321   1.869       .  S
Al313       O323   1.948       .  S
Al313       O322   1.786       .  S
C314        O327   1.253       .  A
C314        C506   1.476       .  S
O315        C325   1.266       .  A
O315       Al317   1.890       .  S
O316        C329   1.256       .  A
O316       Al326   1.907       .  S
Al317       O330   1.895       .  S
Al317       O327   1.889       .  S
Al317       O322   1.779       .  S
O318        C325   1.277       .  A
O318       Al326   1.955       .  S
O319        C328   1.263       .  A
O319       Al326   1.930       .  S
O320       Al326   1.861       .  S
O321        C328   1.254       .  A
O322       Al326   1.786       .  S
O323        C324   1.274       .  A
C324        C537   1.474       .  S
C325        C426   1.481       .  S
C328        C757   1.478       .  S
C329        O330   1.254       .  A
C329        C357   1.477       .  S
O331        C346   1.258       .  A
O331       Al339   1.893       .  S
C332        O342   1.265       .  A
C332        O333   1.267       .  A
C332        C366   1.476       .  S
O333       Al335   1.920       .  S
O334        C336   1.263       .  A
O334       Al335   1.904       .  S
Al335       O343   1.919       .  S
Al335       O345   1.897       .  S
Al335       O344   1.786       .  S
C336        O349   1.261       .  A
C336        C517   1.474       .  S
O337        C347   1.257       .  A
O337       Al339   1.911       .  S
O338        C351   1.267       .  A
O338       Al348   1.907       .  S
Al339       O352   1.905       .  S
Al339       O349   1.896       .  S
Al339       O344   1.775       .  S
O340        C347   1.255       .  A
O340       Al348   1.894       .  S
O341        C350   1.258       .  A
O341       Al348   1.907       .  S
O342       Al348   1.897       .  S
O343        C350   1.260       .  A
O344       Al348   1.788       .  S
O345        C346   1.257       .  A
C346        C377   1.475       .  S
C347        C406   1.473       .  S
C350        C986   1.469       .  S
C351        O352   1.267       .  A
C351        C437   1.467       .  S
C353        C354   1.407       .  A
C353        C358   1.400       .  A
C353        H363   1.083       .  S
C354        C359   1.482       .  S
C354        C355   1.403       .  A
C355        C356   1.392       .  A
C355        H360   1.083       .  S
C356        C357   1.406       .  A
C356        H361   1.083       .  S
C357        C358   1.404       .  A
C358        H362   1.083       .  S
C359        C364   1.407       .  A
C359        C368   1.403       .  A
C364        C365   1.397       .  A
C364        H369   1.083       .  S
C365        C366   1.404       .  A
C365        H370   1.083       .  S
C366        C367   1.406       .  A
C367        C368   1.395       .  A
C367        H371   1.083       .  S
C368        H372   1.083       .  S
C373        C374   1.406       .  A
C373        C378   1.395       .  A
C373        H383   1.083       .  S
C374        C379   1.480       .  S
C374        C375   1.403       .  A
C375        C376   1.398   1_554  A
C375        H380   1.083       .  S
C376        C377   1.407       .  A
C376        H381   1.083       .  S
C377        C378   1.403   1_556  A
C378        H382   1.083       .  S
C379        C384   1.407       .  A
C379        C388   1.401       .  A
C384        C385   1.401       .  A
C384        H389   1.083       .  S
C385        C386   1.404       .  A
C385        H390   1.083       .  S
C386        C387   1.408       .  A
C387        C388   1.392       .  A
C387        H391   1.083       .  S
C388        H392   1.083       .  S
C393        C394   1.408       .  A
C393        C398   1.400       .  A
C393        H403   1.082       .  S
C394        C399   1.490       .  S
C394        C395   1.408       .  A
C395        C396   1.394       .  A
C395        H400   1.082       .  S
C396        C397   1.402       .  A
C396        H401   1.083       .  S
C397        C398   1.404       .  A
C398        H402   1.083       .  S
C399        C404   1.410       .  A
C399        C408   1.406       .  A
C404        C405   1.402       .  A
C404        H409   1.082       .  S
C405        C406   1.402       .  A
C405        H410   1.083       .  S
C406        C407   1.403       .  A
C407        C408   1.392       .  A
C407        H411   1.084       .  S
C408        H412   1.082       .  S
C413        C414   1.412       .  A
C413        C418   1.406       .  A
C413        H423   1.082       .  S
C414        C419   1.500       .  S
C414        C415   1.408       .  A
C415        C416   1.396       .  A
C415        H420   1.082       .  S
C416        C417   1.404       .  A
C416        H421   1.083       .  S
C417        C418   1.405       .  A
C418        H422   1.083       .  S
C419        C424   1.409       .  A
C419        C428   1.411       .  A
C424        C425   1.402       .  A
C424        H429   1.082       .  S
C425        C426   1.406       .  A
C425        H430   1.083       .  S
C426        C427   1.401       .  A
C427        C428   1.399       .  A
C427        H431   1.083       .  S
C428        H432   1.082       .  S
C433        C434   1.404       .  A
C433        C438   1.392   1_554  A
C433        H443   1.083       .  S
C434        C439   1.480       .  S
C434        C435   1.407   1_554  A
C435        C436   1.403       .  A
C435        H440   1.083       .  S
C436        C437   1.403       .  A
C436        H441   1.083       .  S
C437        C438   1.401       .  A
C438        H442   1.084       .  S
C439        C444   1.407       .  A
C439        C448   1.405       .  A
C444        C445   1.399       .  A
C444        H449   1.083       .  S
C445        C446   1.401       .  A
C445        H450   1.084       .  S
C446        C447   1.402       .  A
C447        C448   1.397       .  A
C447        H451   1.083       .  S
C448        H452   1.083   1_554  S
C453        C454   1.408   1_655  A
C453        C458   1.401       .  A
C453        H463   1.083       .  S
C454        C459   1.484       .  S
C454        C455   1.403       .  A
C455        C456   1.393       .  A
C455        H460   1.083       .  S
C456        C457   1.406       .  A
C456        H461   1.083       .  S
C457        C458   1.404   1_455  A
C458        H462   1.083       .  S
C459        C464   1.408       .  A
C459        C468   1.403   1_455  A
C464        C465   1.398       .  A
C464        H469   1.083       .  S
C465        C466   1.404       .  A
C465        H470   1.083       .  S
C466        C467   1.406   1_455  A
C467        C468   1.395       .  A
C467        H471   1.083       .  S
C468        H472   1.083       .  S
C473        C474   1.407   1_455  A
C473        C478   1.402       .  A
C473        H483   1.083       .  S
C474        C479   1.477       .  S
C474        C475   1.401       .  A
C475        C476   1.391       .  A
C475        H480   1.083       .  S
C476        C477   1.406       .  A
C476        H481   1.083       .  S
C477        C478   1.405   1_655  A
C478        H482   1.083       .  S
C479        C484   1.405   1_655  A
C479        C488   1.403   1_556  A
C484        C485   1.393   1_556  A
C484        H489   1.084       .  S
C485        C486   1.403       .  A
C485        H490   1.083       .  S
C486        C487   1.407   1_455  A
C487        C488   1.399       .  A
C487        H491   1.083       .  S
C488        H492   1.083       .  S
C493        C494   1.404       .  A
C493        C498   1.395       .  A
C493        H503   1.083       .  S
C494        C499   1.482       .  S
C494        C495   1.406       .  A
C495        C496   1.400       .  A
C495        H500   1.083       .  S
C496        C497   1.403       .  A
C496        H501   1.083       .  S
C497        C498   1.404       .  A
C498        H502   1.084       .  S
C499        C504   1.403       .  A
C499        C508   1.407       .  A
C504        C505   1.394       .  A
C504        H509   1.083       .  S
C505        C506   1.406       .  A
C505        H510   1.083       .  S
C506        C507   1.404       .  A
C507        C508   1.401       .  A
C507        H511   1.083       .  S
C508        H512   1.083       .  S
C513        C514   1.404       .  A
C513        C518   1.393       .  A
C513        H523   1.083       .  S
C514        C519   1.484       .  S
C514        C515   1.408       .  A
C515        C516   1.401       .  A
C515        H520   1.083       .  S
C516        C517   1.403       .  A
C516        H521   1.083       .  S
C517        C518   1.404       .  A
C518        H522   1.083       .  S
C519        C524   1.406       .  A
C519        C528   1.407       .  A
C524        C525   1.394       .  A
C524        H529   1.083       .  S
C525        C526   1.402       .  A
C525        H530   1.084       .  S
C526        C527   1.404       .  A
C527        C528   1.399       .  A
C527        H531   1.083       .  S
C528        H532   1.083       .  S
C533        C534   1.405       .  A
C533        C538   1.392       .  A
C533        H543   1.082       .  S
C534        C539   1.486       .  S
C534        C535   1.410       .  A
C535        C536   1.401       .  A
C535        H540   1.083       .  S
C536        C537   1.403       .  A
C536        H541   1.083       .  S
C537        C538   1.403       .  A
C538        H542   1.084       .  S
C539        C544   1.405       .  A
C539        C548   1.409       .  A
C544        C545   1.392       .  A
C544        H549   1.082       .  S
C545        C546   1.403       .  A
C545        H550   1.084       .  S
C546        C547   1.403       .  A
C547        C548   1.401       .  A
C547        H551   1.083       .  S
C548        H552   1.083       .  S
C553        C554   1.401       .  A
C553        C558   1.393       .  A
C553        H563   1.083       .  S
C554        C559   1.476       .  S
C554        C555   1.406       .  A
C555        C556   1.396       .  A
C555        H560   1.083       .  S
C556        C557   1.404       .  A
C556        H561   1.083       .  S
C557        C558   1.406       .  A
C558        H562   1.083       .  S
C559        C564   1.401       .  A
C559        C568   1.406       .  A
C564        C565   1.390       .  A
C564        H569   1.083       .  S
C565        C566   1.405       .  A
C565        H570   1.083       .  S
C566        C567   1.403       .  A
C567        C568   1.398       .  A
C567        H571   1.083       .  S
C568        H572   1.083       .  S
C573        C574   1.400       .  A
C573        C578   1.392       .  A
C573        H583   1.084       .  S
C574        C579   1.474       .  S
C574        C575   1.405       .  A
C575        C576   1.401       .  A
C575        H580   1.083       .  S
C576        C577   1.404       .  A
C576        H581   1.083       .  S
C577        C578   1.406       .  A
C578        H582   1.083       .  S
C579        C584   1.401   1_556  A
C579        C588   1.403       .  A
C584        C585   1.399       .  A
C584        H589   1.083       .  S
C585        C586   1.409       .  A
C585        H590   1.083       .  S
C586        C587   1.403       .  A
C587        C588   1.394   1_554  A
C587        H591   1.083       .  S
C588        H592   1.083       .  S
C593        C594   1.404       .  A
C593        C598   1.395       .  A
C593        H603   1.083       .  S
C594        C599   1.487       .  S
C594        C595   1.408       .  A
C595        C596   1.404       .  A
C595        H600   1.083       .  S
C596        C597   1.404       .  A
C596        H601   1.083       .  S
C597        C598   1.406       .  A
C598        H602   1.083       .  S
C599        C604   1.404       .  A
C599        C608   1.407       .  A
C604        C605   1.399       .  A
C604        H609   1.083       .  S
C605        C606   1.407       .  A
C605        H610   1.083       .  S
C606        C607   1.405       .  A
C607        C608   1.399       .  A
C607        H611   1.083       .  S
C608        H612   1.083       .  S
C613        C614   1.411       .  A
C613        C618   1.402       .  A
C613        H623   1.082       .  S
C614        C619   1.487       .  S
C614        C615   1.405       .  A
C615        C616   1.389       .  A
C615        H620   1.082       .  S
C616        C617   1.401       .  A
C616        H621   1.083       .  S
C617        C618   1.401       .  A
C618        H622   1.083       .  S
C619        C624   1.405       .  A
C619        C628   1.409       .  A
C624        C625   1.396       .  A
C624        H629   1.082       .  S
C625        C626   1.406       .  A
C625        H630   1.083       .  S
C626        C627   1.402       .  A
C627        C628   1.394       .  A
C627        H631   1.083       .  S
C628        H632   1.082       .  S
C633        C634   1.404   1_556  A
C633        C638   1.392       .  A
C633        H643   1.083       .  S
C634        C639   1.482       .  S
C634        C635   1.409       .  A
C635        C636   1.403   1_554  A
C635        H640   1.083       .  S
C636        C637   1.402       .  A
C636        H641   1.083       .  S
C637        C638   1.400       .  A
C638        H642   1.083       .  S
C639        C644   1.405       .  A
C639        C648   1.408       .  A
C644        C645   1.395       .  A
C644        H649   1.083       .  S
C645        C646   1.401       .  A
C645        H650   1.084       .  S
C646        C647   1.400       .  A
C647        C648   1.400       .  A
C647        H651   1.083       .  S
C648        H652   1.083       .  S
C653        C654   1.402       .  A
C653        C658   1.398       .  A
C653        H663   1.084       .  S
C654        C659   1.476       .  S
C654        C655   1.404       .  A
C655        C656   1.401       .  A
C655        H660   1.083       .  S
C656        C657   1.405       .  A
C656        H661   1.083       .  S
C657        C658   1.406       .  A
C658        H662   1.083       .  S
C659        C664   1.401       .  A
C659        C668   1.403       .  A
C664        C665   1.398       .  A
C664        H669   1.083       .  S
C665        C666   1.408       .  A
C665        H670   1.083       .  S
C666        C667   1.407       .  A
C667        C668   1.400       .  A
C667        H671   1.083       .  S
C668        H672   1.083       .  S
C673        C674   1.406       .  A
C673        C678   1.396       .  A
C673        H683   1.083       .  S
C674        C679   1.479       .  S
C674        C675   1.405       .  A
C675        C676   1.391       .  A
C675        H680   1.083       .  S
C676        C677   1.402       .  A
C676        H681   1.084       .  S
C677        C678   1.403       .  A
C678        H682   1.083       .  S
C679        C684   1.406       .  A
C679        C688   1.406       .  A
C684        C685   1.396       .  A
C684        H689   1.083       .  S
C685        C686   1.403       .  A
C685        H690   1.083       .  S
C686        C687   1.400       .  A
C687        C688   1.391       .  A
C687        H691   1.084       .  S
C688        H692   1.083       .  S
C693        C694   1.401       .  A
C693        C698   1.390       .  A
C693        H703   1.083       .  S
C694        C699   1.477       .  S
C694        C695   1.406       .  A
C695        C696   1.400       .  A
C695        H700   1.083       .  S
C696        C697   1.405       .  A
C696        H701   1.083       .  S
C697        C698   1.405       .  A
C698        H702   1.083       .  S
C699        C704   1.403       .  A
C699        C708   1.406       .  A
C704        C705   1.396   1_554  A
C704        H709   1.083       .  S
C705        C706   1.405       .  A
C705        H710   1.083       .  S
C706        C707   1.402   1_556  A
C707        C708   1.393       .  A
C707        H711   1.083       .  S
C708        H712   1.083       .  S
C713        C714   1.403       .  A
C713        C718   1.394       .  A
C713        H723   1.083       .  S
C714        C719   1.480       .  S
C714        C715   1.405       .  A
C715        C716   1.400       .  A
C715        H720   1.083   1_565  S
C716        C717   1.406       .  A
C716        H721   1.083   1_565  S
C717        C718   1.406       .  A
C718        H722   1.083       .  S
C719        C724   1.404       .  A
C719        C728   1.405       .  A
C724        C725   1.398       .  A
C724        H729   1.083   1_565  S
C725        C726   1.406       .  A
C725        H730   1.083   1_565  S
C726        C727   1.404       .  A
C727        C728   1.396       .  A
C727        H731   1.083       .  S
C728        H732   1.083       .  S
C733        C734   1.412       .  A
C733        C738   1.398       .  A
C733        H743   1.081       .  S
C734        C739   1.501       .  S
C734        C735   1.410       .  A
C735        C736   1.401       .  A
C735        H740   1.081       .  S
C736        C737   1.405       .  A
C736        H741   1.083       .  S
C737        C738   1.401       .  A
C738        H742   1.083       .  S
C739        C744   1.408       .  A
C739        C748   1.413       .  A
C744        C745   1.394       .  A
C744        H749   1.081       .  S
C745        C746   1.403       .  A
C745        H750   1.083       .  S
C746        C747   1.404       .  A
C747        C748   1.404       .  A
C747        H751   1.083       .  S
C748        H752   1.081       .  S
C753        C754   1.401       .  A
C753        C758   1.393       .  A
C753        H763   1.084       .  S
C754        C759   1.478       .  S
C754        C755   1.406       .  A
C755        C756   1.406       .  A
C755        H760   1.083       .  S
C756        C757   1.406       .  A
C756        H761   1.083       .  S
C757        C758   1.405       .  A
C758        H762   1.084       .  S
C759        C764   1.402       .  A
C759        C768   1.407       .  A
C764        C765   1.396       .  A
C764        H769   1.083       .  S
C765        C766   1.404       .  A
C765        H770   1.084       .  S
C766        C767   1.401       .  A
C767        C768   1.401       .  A
C767        H771   1.083       .  S
C768        H772   1.083       .  S
C773        C774   1.404       .  A
C773        C778   1.396       .  A
C773        H783   1.083       .  S
C774        C779   1.485       .  S
C774        C775   1.408       .  A
C775        C776   1.403       .  A
C775        H780   1.083       .  S
C776        C777   1.403       .  A
C776        H781   1.083       .  S
C777        C778   1.404       .  A
C778        H782   1.084       .  S
C779        C784   1.404       .  A
C779        C788   1.409       .  A
C784        C785   1.395       .  A
C784        H789   1.083       .  S
C785        C786   1.402       .  A
C785        H790   1.084       .  S
C786        C787   1.402       .  A
C787        C788   1.403       .  A
C787        H791   1.083       .  S
C788        H792   1.083       .  S
C793        C794   1.400       .  A
C793        C798   1.397       .  A
C793        H803   1.083       .  S
C794        C799   1.475       .  S
C794        C795   1.405       .  A
C795        C796   1.395       .  A
C795        H800   1.084       .  S
C796        C797   1.402       .  A
C796        H801   1.083       .  S
C797        C798   1.409       .  A
C798        H802   1.083       .  S
C799        C804   1.399       .  A
C799        C808   1.406       .  A
C804        C805   1.387       .  A
C804        H809   1.084       .  S
C805        C806   1.405   1_554  A
C805        H810   1.083       .  S
C806        C807   1.407   1_556  A
C807        C808   1.404       .  A
C807        H811   1.083   1_554  S
C808        H812   1.083       .  S
C813        C814   1.402       .  A
C813        C818   1.393       .  A
C813        H823   1.083       .  S
C814        C819   1.484       .  S
C814        C815   1.409       .  A
C815        C816   1.403       .  A
C815        H820   1.083       .  S
C816        C817   1.404       .  A
C816        H821   1.083       .  S
C817        C818   1.407       .  A
C818        H822   1.083       .  S
C819        C824   1.402       .  A
C819        C828   1.409       .  A
C824        C825   1.396       .  A
C824        H829   1.083       .  S
C825        C826   1.406       .  A
C825        H830   1.083       .  S
C826        C827   1.403       .  A
C827        C828   1.400       .  A
C827        H831   1.083       .  S
C828        H832   1.083       .  S
C833        C834   1.410       .  A
C833        C838   1.404       .  A
C833        H843   1.083       .  S
C834        C839   1.488       .  S
C834        C835   1.405       .  A
C835        C836   1.396       .  A
C835        H840   1.083       .  S
C836        C837   1.402       .  A
C836        H841   1.084       .  S
C837        C838   1.402       .  A
C838        H842   1.083       .  S
C839        C844   1.410       .  A
C839        C848   1.405       .  A
C844        C845   1.402       .  A
C844        H849   1.083       .  S
C845        C846   1.401       .  A
C845        H850   1.083       .  S
C846        C847   1.403       .  A
C847        C848   1.396       .  A
C847        H851   1.084       .  S
C848        H852   1.083       .  S
C853        C854   1.402       .  A
C853        C858   1.395       .  A
C853        H863   1.083       .  S
C854        C859   1.481       .  S
C854        C855   1.406       .  A
C855        C856   1.400       .  A
C855        H860   1.083       .  S
C856        C857   1.405       .  A
C856        H861   1.083       .  S
C857        C858   1.407       .  A
C858        H862   1.083       .  S
C859        C864   1.402       .  A
C859        C868   1.407       .  A
C864        C865   1.397       .  A
C864        H869   1.083       .  S
C865        C866   1.407       .  A
C865        H870   1.083       .  S
C866        C867   1.403       .  A
C867        C868   1.398       .  A
C867        H871   1.083       .  S
C868        H872   1.083       .  S
C873        C874   1.403       .  A
C873        C878   1.395       .  A
C873        H883   1.083       .  S
C874        C879   1.481       .  S
C874        C875   1.408       .  A
C875        C876   1.403       .  A
C875        H880   1.083       .  S
C876        C877   1.402       .  A
C876        H881   1.083       .  S
C877        C878   1.404       .  A
C878        H882   1.084       .  S
C879        C884   1.403       .  A
C879        C888   1.407       .  A
C884        C885   1.395       .  A
C884        H889   1.083       .  S
C885        C886   1.404       .  A
C885        H890   1.084       .  S
C886        C887   1.403       .  A
C887        C888   1.403       .  A
C887        H891   1.083       .  S
C888        H892   1.083       .  S
C893        C894   1.407       .  A
C893        C898   1.403       .  A
C893        H903   1.083       .  S
C894        C899   1.487       .  S
C894        C895   1.405       .  A
C895        C896   1.399       .  A
C895        H900   1.083       .  S
C896        C897   1.404       .  A
C896        H901   1.083       .  S
C897        C898   1.405       .  A
C898        H902   1.083       .  S
C899        C904   1.405       .  A
C899        C908   1.405       .  A
C904        C905   1.401       .  A
C904        H909   1.083       .  S
C905        C906   1.407       .  A
C905        H910   1.083       .  S
C906        C907   1.407       .  A
C907        C908   1.401       .  A
C907        H911   1.083       .  S
C908        H912   1.083       .  S
C913        C914   1.407       .  A
C913        C918   1.398       .  A
C913        H923   1.083       .  S
C914        C919   1.480       .  S
C914        C915   1.404       .  A
C915        C916   1.392       .  A
C915        H920   1.083   1_554  S
C916        C917   1.404       .  A
C916        H921   1.084       .  S
C917        C918   1.402       .  A
C918        H922   1.083       .  S
C919        C924   1.407   1_554  A
C919        C928   1.403       .  A
C924        C925   1.401       .  A
C924        H929   1.083       .  S
C925        C926   1.404       .  A
C925        H930   1.083       .  S
C926        C927   1.404       .  A
C927        C928   1.390   1_556  A
C927        H931   1.083   1_556  S
C928        H932   1.083       .  S
C933        C934   1.404   1_545  A
C933        C938   1.395       .  A
C933        H943   1.083       .  S
C934        C939   1.475   1_565  S
C934        C935   1.402       .  A
C935        C936   1.395       .  A
C935        H940   1.083       .  S
C936        C937   1.407       .  A
C936        H941   1.083       .  S
C937        C938   1.404   1_565  A
C938        H942   1.083       .  S
C939        C944   1.404   1_546  A
C939        C948   1.402       .  A
C944        C945   1.398       .  A
C944        H949   1.083   1_554  S
C945        C946   1.405   1_565  A
C945        H950   1.083       .  S
C946        C947   1.406       .  A
C947        C948   1.392   1_554  A
C947        H951   1.083       .  S
C948        H952   1.083       .  S
C953        C954   1.404   1_545  A
C953        C958   1.394       .  A
C953        H963   1.083       .  S
C954        C959   1.475       .  S
C954        C955   1.402       .  A
C955        C956   1.396       .  A
C955        H960   1.083       .  S
C956        C957   1.407   1_565  A
C956        H961   1.083       .  S
C957        C958   1.404       .  A
C958        H962   1.083       .  S
C959        C964   1.405       .  A
C959        C968   1.400       .  A
C964        C965   1.399       .  A
C964        H969   1.083   1_565  S
C965        C966   1.404       .  A
C965        H970   1.083   1_565  S
C966        C967   1.408       .  A
C967        C968   1.391       .  A
C967        H971   1.083       .  S
C968        H972   1.084       .  S
C973        C974   1.405       .  A
C973        C978   1.398       .  A
C973        H983   1.083       .  S
C974        C979   1.486       .  S
C974        C975   1.407       .  A
C975        C976   1.402       .  A
C975        H980   1.083       .  S
C976        C977   1.404       .  A
C976        H981   1.083       .  S
C977        C978   1.405       .  A
C978        H982   1.084       .  S
C979        C984   1.405       .  A
C979        C988   1.408       .  A
C984        C985   1.396       .  A
C984        H989   1.083       .  S
C985        C986   1.402       .  A
C985        H990   1.084       .  S
C986        C987   1.403       .  A
C987        C988   1.403       .  A
C987        H991   1.083       .  S
C988        H992   1.083       .  S
C993        C994   1.407       .  A
C993        C998   1.392       .  A
C993       H1003   1.081       .  S
C994        C999   1.499       .  S
C994        C995   1.413       .  A
C995        C996   1.405       .  A
C995       H1000   1.082       .  S
C996        C997   1.404       .  A
C996       H1001   1.083       .  S
C997        C998   1.403       .  A
C998       H1002   1.083       .  S
C999       C1004   1.411       .  A
C999       C1008   1.410       .  A
C1004      C1005   1.397       .  A
C1004      H1009   1.081       .  S
C1005      C1006   1.401       .  A
C1005      H1010   1.083       .  S
C1006      C1007   1.404       .  A
C1007      C1008   1.400       .  A
C1007      H1011   1.083       .  S
C1008      H1012   1.081       .  S
C1013      C1014   1.408       .  A
C1013      C1018   1.403       .  A
C1013      H1023   1.083       .  S
C1014      C1019   1.485       .  S
C1014      C1015   1.404       .  A
C1015      C1016   1.396       .  A
C1015      H1020   1.083       .  S
C1016      C1017   1.403       .  A
C1016      H1021   1.084       .  S
C1017      C1018   1.402       .  A
C1018      H1022   1.083       .  S
C1019      C1024   1.408       .  A
C1019      C1028   1.404       .  A
C1024      C1025   1.403       .  A
C1024      H1029   1.083       .  S
C1025      C1026   1.403       .  A
C1025      H1030   1.083       .  S
C1026      C1027   1.405       .  A
C1027      C1028   1.397       .  A
C1027      H1031   1.084       .  S
C1028      H1032   1.083       .  S
C1033      C1034   1.408       .  A
C1033      C1038   1.396       .  A
C1033      H1043   1.082       .  S
C1034      C1039   1.487       .  S
C1034      C1035   1.408       .  A
C1035      C1036   1.395       .  A
C1035      H1040   1.082       .  S
C1036      C1037   1.402       .  A
C1036      H1041   1.083       .  S
C1037      C1038   1.402       .  A
C1038      H1042   1.083       .  S
C1039      C1044   1.409       .  A
C1039      C1048   1.406       .  A
C1044      C1045   1.398       .  A
C1044      H1049   1.082       .  S
C1045      C1046   1.402       .  A
C1045      H1050   1.083       .  S
C1046      C1047   1.404       .  A
C1047      C1048   1.393       .  A
C1047      H1051   1.083       .  S
C1048      H1052   1.082       .  S
C1053      C1054   1.402       .  A
C1053      C1058   1.396       .  A
C1053      H1063   1.083       .  S
C1054      C1059   1.476       .  S
C1054      C1055   1.406       .  A
C1055      C1056   1.402       .  A
C1055      H1060   1.083       .  S
C1056      C1057   1.402       .  A
C1056      H1061   1.083       .  S
C1057      C1058   1.404       .  A
C1058      H1062   1.084       .  S
C1059      C1064   1.402       .  A
C1059      C1068   1.406       .  A
C1064      C1065   1.392       .  A
C1064      H1069   1.084       .  S
C1065      C1066   1.401       .  A
C1065      H1070   1.084       .  S
C1066      C1067   1.403       .  A
C1067      C1068   1.404       .  A
C1067      H1071   1.083   1_545  S
C1068      H1072   1.083       .  S
C1073      C1074   1.406       .  A
C1073      C1078   1.397       .  A
C1073      H1083   1.083       .  S
C1074      C1079   1.481       .  S
C1074      C1075   1.402       .  A
C1075      C1076   1.398       .  A
C1075      H1080   1.083   1_655  S
C1076      C1077   1.407       .  A
C1076      H1081   1.083   1_655  S
C1077      C1078   1.405       .  A
C1078      H1082   1.083       .  S
C1079      C1084   1.407   1_655  A
C1079      C1088   1.401       .  A
C1084      C1085   1.403   1_454  A
C1084      H1089   1.083       .  S
C1085      C1086   1.406       .  A
C1085      H1090   1.083   1_655  S
C1086      C1087   1.406   1_556  A
C1087      C1088   1.391       .  A
C1087      H1091   1.083   1_554  S
C1088      H1092   1.083       .  S
C1093      C1094   1.401       .  A
C1093      C1098   1.390       .  A
C1093      H1103   1.083       .  S
C1094      C1099   1.485       .  S
C1094      C1095   1.409       .  A
C1095      C1096   1.405       .  A
C1095      H1100   1.083       .  S
C1096      C1097   1.406       .  A
C1096      H1101   1.083       .  S
C1097      C1098   1.407       .  A
C1098      H1102   1.083       .  S
C1099      C1104   1.404       .  A
C1099      C1108   1.408       .  A
C1104      C1105   1.400       .  A
C1104      H1109   1.083       .  S
C1105      C1106   1.409       .  A
C1105      H1110   1.083       .  S
C1106      C1107   1.402       .  A
C1107      C1108   1.396       .  A
C1107      H1111   1.083       .  S
C1108      H1112   1.083       .  S
C1113      C1114   1.404       .  A
C1113      C1118   1.397       .  A
C1113      H1123   1.083       .  S
C1114      C1119   1.482       .  S
C1114      C1115   1.408       .  A
C1115      C1116   1.403       .  A
C1115      H1120   1.083       .  S
C1116      C1117   1.402       .  A
C1116      H1121   1.083       .  S
C1117      C1118   1.403       .  A
C1118      H1122   1.084       .  S
C1119      C1124   1.403       .  A
C1119      C1128   1.408       .  A
C1124      C1125   1.395       .  A
C1124      H1129   1.083       .  S
C1125      C1126   1.402       .  A
C1125      H1130   1.084       .  S
C1126      C1127   1.404       .  A
C1127      C1128   1.404       .  A
C1127      H1131   1.083       .  S
C1128      H1132   1.083       .  S
C1133      C1134   1.408       .  A
C1133      C1138   1.399       .  A
C1133      H1143   1.082       .  S
C1134      C1139   1.491       .  S
C1134      C1135   1.406       .  A
C1135      C1136   1.396       .  A
C1135      H1140   1.082       .  S
C1136      C1137   1.405       .  A
C1136      H1141   1.083       .  S
C1137      C1138   1.405       .  A
C1138      H1142   1.083       .  S
C1139      C1144   1.408       .  A
C1139      C1148   1.407       .  A
C1144      C1145   1.397       .  A
C1144      H1149   1.082       .  S
C1145      C1146   1.404       .  A
C1145      H1150   1.083       .  S
C1146      C1147   1.406       .  A
C1147      C1148   1.399       .  A
C1147      H1151   1.083       .  S
C1148      H1152   1.082       .  S
C1153      C1154   1.407       .  A
C1153      C1158   1.402       .  A
C1153      H1163   1.083       .  S
C1154      C1159   1.482       .  S
C1154      C1155   1.403       .  A
C1155      C1156   1.396       .  A
C1155      H1160   1.083       .  S
C1156      C1157   1.405       .  A
C1156      H1161   1.083       .  S
C1157      C1158   1.404       .  A
C1158      H1162   1.083       .  S
C1159      C1164   1.406       .  A
C1159      C1168   1.404       .  A
C1164      C1165   1.400       .  A
C1164      H1169   1.083       .  S
C1165      C1166   1.404       .  A
C1165      H1170   1.083       .  S
C1166      C1167   1.406       .  A
C1167      C1168   1.397       .  A
C1167      H1171   1.083       .  S
C1168      H1172   1.083       .  S
C1173      C1174   1.411       .  A
C1173      C1178   1.394       .  A
C1173      H1183   1.081       .  S
C1174      C1179   1.489       .  S
C1174      C1175   1.409       .  A
C1175      C1176   1.396       .  A
C1175      H1180   1.082       .  S
C1176      C1177   1.399       .  A
C1176      H1181   1.083       .  S
C1177      C1178   1.396       .  A
C1178      H1182   1.084       .  S
C1179      C1184   1.408       .  A
C1179      C1188   1.411   1_554  A
C1184      C1185   1.395   1_554  A
C1184      H1189   1.082       .  S
C1185      C1186   1.400       .  A
C1185      H1190   1.083       .  S
C1186      C1187   1.397       .  A
C1187      C1188   1.395       .  A
C1187      H1191   1.084       .  S
C1188      H1192   1.081       .  S
C1193      C1194   1.402       .  A
C1193      C1198   1.393       .  A
C1193      H1203   1.083       .  S
C1194      C1199   1.480       .  S
C1194      C1195   1.408       .  A
C1195      C1196   1.403       .  A
C1195      H1200   1.083       .  S
C1196      C1197   1.402       .  A
C1196      H1201   1.083       .  S
C1197      C1198   1.405       .  A
C1198      H1202   1.084       .  S
C1199      C1204   1.403       .  A
C1199      C1208   1.407       .  A
C1204      C1205   1.395       .  A
C1204      H1209   1.083       .  S
C1205      C1206   1.402       .  A
C1205      H1210   1.084       .  S
C1206      C1207   1.401       .  A
C1207      C1208   1.401       .  A
C1207      H1211   1.083       .  S
C1208      H1212   1.083       .  S
C1213      C1214   1.408       .  A
C1213      C1218   1.400       .  A
C1213      H1223   1.082       .  S
C1214      C1219   1.489       .  S
C1214      C1215   1.405       .  A
C1215      C1216   1.396       .  A
C1215      H1220   1.083       .  S
C1216      C1217   1.406       .  A
C1216      H1221   1.083       .  S
C1217      C1218   1.405       .  A
C1218      H1222   1.083       .  S
C1219      C1224   1.408       .  A
C1219      C1228   1.406       .  A
C1224      C1225   1.398       .  A
C1224      H1229   1.083       .  S
C1225      C1226   1.404       .  A
C1225      H1230   1.083       .  S
C1226      C1227   1.406       .  A
C1227      C1228   1.399       .  A
C1227      H1231   1.083       .  S
C1228      H1232   1.083       .  S
C1233      C1234   1.408       .  A
C1233      C1238   1.402       .  A
C1233      H1243   1.083       .  S
C1234      C1239   1.483       .  S
C1234      C1235   1.405       .  A
C1235      C1236   1.396       .  A
C1235      H1240   1.083       .  S
C1236      C1237   1.401       .  A
C1236      H1241   1.084       .  S
C1237      C1238   1.402       .  A
C1238      H1242   1.083       .  S
C1239      C1244   1.408       .  A
C1239      C1248   1.405       .  A
C1244      C1245   1.403       .  A
C1244      H1249   1.083       .  S
C1245      C1246   1.402       .  A
C1245      H1250   1.083       .  S
C1246      C1247   1.401       .  A
C1247      C1248   1.396       .  A
C1247      H1251   1.084       .  S
C1248      H1252   1.083       .  S
C1253      C1254   1.401       .  A
C1253      C1258   1.400       .  A
C1253      H1263   1.083       .  S
C1254      C1259   1.478       .  S
C1254      C1255   1.404       .  A
C1255      C1256   1.399       .  A
C1255      H1260   1.083       .  S
C1256      C1257   1.405       .  A
C1256      H1261   1.083       .  S
C1257      C1258   1.409       .  A
C1258      H1262   1.083       .  S
C1259      C1264   1.399       .  A
C1259      C1268   1.406       .  A
C1264      C1265   1.394       .  A
C1264      H1269   1.083       .  S
C1265      C1266   1.409       .  A
C1265      H1270   1.083       .  S
C1266      C1267   1.406       .  A
C1267      C1268   1.404       .  A
C1267      H1271   1.083       .  S
C1268      H1272   1.083       .  S
C1273      C1274   1.406       .  A
C1273      C1278   1.396       .  A
C1273      H1283   1.083       .  S
C1274      C1279   1.481       .  S
C1274      C1275   1.403       .  A
C1275      C1276   1.397       .  A
C1275      H1280   1.083       .  S
C1276      C1277   1.407       .  A
C1276      H1281   1.083       .  S
C1277      C1278   1.403       .  A
C1278      H1282   1.083       .  S
C1279      C1284   1.407   1_556  A
C1279      C1288   1.403       .  A
C1284      C1285   1.401       .  A
C1284      H1289   1.083   1_554  S
C1285      C1286   1.405       .  A
C1285      H1290   1.083       .  S
C1286      C1287   1.406       .  A
C1287      C1288   1.391   1_554  A
C1287      H1291   1.083       .  S
C1288      H1292   1.083       .  S
C1293      C1294   1.407       .  A
C1293      C1298   1.398       .  A
C1293      H1303   1.083       .  S
C1294      C1299   1.487       .  S
C1294      C1295   1.404       .  A
C1295      C1296   1.401       .  A
C1295      H1300   1.083       .  S
C1296      C1297   1.408       .  A
C1296      H1301   1.083       .  S
C1297      C1298   1.405       .  A
C1298      H1302   1.083       .  S
C1299      C1304   1.409       .  A
C1299      C1308   1.402       .  A
C1304      C1305   1.405       .  A
C1304      H1309   1.083       .  S
C1305      C1306   1.406       .  A
C1305      H1310   1.083       .  S
C1306      C1307   1.408       .  A
C1307      C1308   1.393       .  A
C1307      H1311   1.083       .  S
C1308      H1312   1.083       .  S
