geometry optimzed in LAMMPS
_audit_creation_date              2020-12-01 
_audit_creation_method            'lammps2cif' 
_symmetry_space_group_name_H-M    'P1' 
_symmetry_Int_Tables_number       1 
_symmetry_cell_setting            triclinic 
loop_ 
_symmetry_equiv_pos_as_xyz 
  x,y,z 
_cell_length_a                    54.18998567 
_cell_length_b                    54.41278932579052 
_cell_length_c                    29.918447544860296 
_cell_angle_alpha                 89.93738928518883 
_cell_angle_beta                  89.82870280679067 
_cell_angle_gamma                 89.74708600687502 
loop_ 
_atom_site_label 
_atom_site_type_symbol 
_atom_site_fract_x 
_atom_site_fract_y 
_atom_site_fract_z 
_atom_site_charge 
Fe1        Fe  0.15332788  0.34127572  0.83393843     1.65800
Fe2        Fe  0.09949043  0.36275045  0.87748290     1.73200
Fe3        Fe  0.09928688  0.31123047  0.81254878     1.54400
O4          O  0.11420836  0.31956370  0.75110076    -0.81800
O5          O  0.07775404  0.33638609  0.90766529    -0.80100
O6          O  0.15222068  0.33199650  0.76730583    -0.84300
O7          O  0.15894567  0.30571491  0.85289449    -0.79100
O8          O  0.06895852  0.33306908  0.79564736    -0.80900
O9          O  0.12330737  0.35961187  0.93012461    -0.83700
C10         C  0.14811573  0.28583396  0.84365160     0.97100
C11         C  0.13566898  0.32623007  0.73936828     1.04500
O12         O  0.11734502  0.33839317  0.84142326    -1.12600
O13         O  0.11915929  0.39208445  0.85227718    -0.75100
O14         O  0.15152241  0.37752532  0.81481112    -0.78600
O15         O  0.12698289  0.28517725  0.82519860    -0.79200
C16         C  0.13811720  0.39526112  0.82791312     0.96000
O17         O  0.15976845  0.35116084  0.89929919    -0.77200
O18         O  0.07351018  0.36915884  0.82905468    -0.82400
C19         C  0.07350814  0.31355413  0.90336045     0.98600
C20         C  0.06198197  0.35508459  0.80277630     1.04600
O21         O  0.08211974  0.30078663  0.87133919    -0.78000
C22         C  0.14648986  0.35700289  0.93255546     1.02900
Fe23       Fe  0.33908059  0.16217400  0.83686194     1.65800
Fe24       Fe  0.35711301  0.10706209  0.87961130     1.73200
Fe25       Fe  0.30461442  0.11070611  0.81731449     1.54400
O26         O  0.28102745  0.14022535  0.82989011    -0.81800
O27         O  0.36058414  0.08034799  0.83172800    -0.80100
O28         O  0.30372750  0.17103106  0.85537032    -0.84300
O29         O  0.32949697  0.16134079  0.77034126    -0.79100
O30         O  0.29330770  0.09532031  0.87721238    -0.80900
O31         O  0.38800355  0.12371519  0.85285069    -0.83700
C32         C  0.32162524  0.14543089  0.74293685     0.97100
C33         C  0.28298238  0.16159735  0.84657957     1.04500
O34         O  0.33361636  0.12664994  0.84459534    -1.12600
O35         O  0.35664924  0.13120458  0.93177865    -0.75100
O36         O  0.34950232  0.16793584  0.90213877    -0.78600
O37         O  0.31357059  0.12454785  0.75507005    -0.79200
C38         C  0.35510977  0.15432884  0.93500230     0.96000
O39         O  0.37532741  0.15750794  0.81789000    -0.77200
O40         O  0.32920404  0.08825179  0.91137549    -0.82400
C41         C  0.34492355  0.06970616  0.80726454     0.98600
C42         C  0.30589043  0.08628418  0.90905517     1.04600
O43         O  0.32341072  0.07843887  0.80089953    -0.78000
C44         C  0.39227800  0.14264723  0.82927786     1.02900
Fe45       Fe  0.15646706  0.69379346  0.20299519     1.65800
Fe46       Fe  0.10205733  0.67576724  0.15698384     1.73200
Fe47       Fe  0.10370879  0.72750330  0.22213556     1.54400
O48         O  0.11843462  0.71940996  0.28431997    -0.81800
O49         O  0.08436417  0.70350444  0.12360240    -0.80100
O50         O  0.15373820  0.69955157  0.27033395    -0.84300
O51         O  0.16511280  0.72962058  0.19204295    -0.79100
O52         O  0.07254991  0.70755310  0.24004122    -0.80900
O53         O  0.12807066  0.67570279  0.10712331    -0.83700
C54         C  0.15465696  0.75017891  0.19736104     0.97100
C55         C  0.13821386  0.70893352  0.29716212     1.04500
O56         O  0.12071634  0.69904485  0.19408529    -1.12600
O57         O  0.11752386  0.64507345  0.18543659    -0.75100
O58         O  0.15299359  0.65697369  0.21532645    -0.78600
O59         O  0.13208567  0.75208460  0.20849686    -0.79200
C60         C  0.13739620  0.64055280  0.20606203     0.96000
O61         O  0.16368171  0.68740913  0.13657680    -0.77200
O62         O  0.07343676  0.67258815  0.20178268    -0.82400
C63         C  0.07998485  0.72623379  0.12879686     0.98600
C64         C  0.06338035  0.68684389  0.22993984     1.04600
O65         O  0.08701107  0.73821324  0.16289124    -0.78000
C66         C  0.15093493  0.68015821  0.10380552     1.02900
Fe67       Fe  0.33272612  0.88242817  0.20216217     1.65800
Fe68       Fe  0.35195465  0.93641606  0.15616881     1.73200
Fe69       Fe  0.30023113  0.93565334  0.22287888     1.54400
O70         O  0.27468836  0.90822610  0.20945072    -0.81800
O71         O  0.35600694  0.96448813  0.20159924    -0.80100
O72         O  0.29636187  0.87521350  0.18924076    -0.84300
O73         O  0.32639066  0.88471666  0.26956758    -0.79100
O74         O  0.28964682  0.95310872  0.16446846    -0.80900
O75         O  0.38282998  0.91994658  0.18458206    -0.83700
C76         C  0.31817595  0.90055722  0.29690836     0.97100
C77         C  0.27604114  0.88627939  0.19529457     1.04500
O78         O  0.32828458  0.91820930  0.19370006    -1.12600
O79         O  0.35083485  0.91088244  0.10528639    -0.75100
O80         O  0.33967759  0.87540530  0.13605378    -0.78600
O81         O  0.30838218  0.92069369  0.28464328    -0.79200
C82         C  0.34627678  0.88809207  0.10268964     0.96000
O83         O  0.37004504  0.88491610  0.21541213    -0.77200
O84         O  0.32417314  0.95530057  0.12355067    -0.82400
C85         C  0.34202364  0.97455222  0.23030513     0.98600
C86         C  0.30153017  0.96030229  0.13022267     1.04600
O87         O  0.32107929  0.96582784  0.24059263    -0.78000
C88         C  0.38691285  0.90015979  0.20589923     1.02900
Fe89       Fe  0.68716158  0.15746379  0.19105613     1.65800
Fe90       Fe  0.66905342  0.10277550  0.15212608     1.73200
Fe91       Fe  0.72218334  0.10708246  0.21095177     1.54400
O92         O  0.74483094  0.13790160  0.19888978    -0.81800
O93         O  0.66477679  0.07913412  0.20497053    -0.80100
O94         O  0.72085974  0.16503057  0.16422439    -0.84300
O95         O  0.70095257  0.15828341  0.25546073    -0.79100
O96         O  0.73321092  0.09248705  0.15073202    -0.80900
O97         O  0.63838171  0.12260793  0.17471052    -0.83700
C98         C  0.70661012  0.14197067  0.28410043     0.97100
C99         C  0.74184277  0.15811296  0.17775677     1.04500
O100        O  0.69281858  0.12237849  0.18467087    -1.12600
O101        O  0.67183839  0.12464905  0.09673584    -0.75100
O102        O  0.67253990  0.16168227  0.12772074    -0.78600
O103        O  0.71261396  0.12023682  0.27298013    -0.79200
C104        C  0.67029631  0.14781396  0.09389500     0.96000
O105        O  0.65273641  0.15248462  0.21790806    -0.77200
O106        O  0.69644990  0.08084503  0.12478312    -0.82400
C107        C  0.68137469  0.06697593  0.22514652     0.98600
C108        C  0.71993031  0.08028349  0.12393223     1.04600
O109        O  0.70376573  0.07417891  0.22643416    -0.78000
C110        C  0.63500858  0.14000899  0.20252892     1.02900
Fe111      Fe  0.86875892  0.34372024  0.20150810     1.65800
Fe112      Fe  0.92318684  0.36368964  0.15796285     1.73200
Fe113      Fe  0.92178614  0.31085062  0.21965867     1.54400
O114        O  0.90733361  0.31834882  0.28209149    -0.81800
O115        O  0.94281732  0.33684618  0.12397104    -0.80100
O116        O  0.86985468  0.33310795  0.26760095    -0.84300
O117        O  0.86147939  0.30872888  0.18058363    -0.79100
O118        O  0.95286417  0.33085125  0.23797703    -0.80900
O119        O  0.89857681  0.36325330  0.10655936    -0.83700
C120        C  0.87173098  0.28823192  0.18843300     0.97100
C121        C  0.88621673  0.32580875  0.29481943     1.04500
O122        O  0.90462065  0.33939923  0.19294849    -1.12600
O123        O  0.90555978  0.39335889  0.18748252    -0.75100
O124        O  0.87237899  0.37933686  0.22303502    -0.78600
O125        O  0.89315188  0.28643707  0.20554132    -0.79200
C126        C  0.88686711  0.39664736  0.21259333     0.96000
O127        O  0.86210278  0.35516257  0.13692674    -0.77200
O128        O  0.95033933  0.36731899  0.20495396    -0.82400
C129        C  0.94642735  0.31379806  0.12718003     0.98600
C130        C  0.96096247  0.35243755  0.23119544     1.04600
O131        O  0.93835207  0.30105272  0.15969078    -0.78000
C132        C  0.87544149  0.36095958  0.10376991     1.02900
Fe133      Fe  0.87271788  0.69384524  0.84274367     1.65800
Fe134      Fe  0.92520421  0.67438887  0.89237501     1.73200
Fe135      Fe  0.92617634  0.72448850  0.82426317     1.54400
O136        O  0.91381480  0.71454889  0.76217772    -0.81800
O137        O  0.94679284  0.70160281  0.92058396    -0.80100
O138        O  0.87490443  0.70426675  0.77628258    -0.84300
O139        O  0.86598544  0.72909376  0.86255198    -0.79100
O140        O  0.95763849  0.70311050  0.81301398    -0.80900
O141        O  0.90060699  0.68029918  0.94312008    -0.83700
C142        C  0.87614673  0.74903731  0.85100560     0.97100
C143        C  0.89222729  0.70932634  0.74918513     1.04500
O144        O  0.90814266  0.69752021  0.85301440    -1.12600
O145        O  0.90540277  0.64395858  0.86956718    -0.75100
O146        O  0.87679928  0.65809917  0.82276626    -0.78600
O147        O  0.89724462  0.74968842  0.83216833    -0.79200
C148        C  0.88848352  0.64045687  0.84078079     0.96000
O149        O  0.86484223  0.68286281  0.90737672    -0.77200
O150        O  0.95198845  0.66676757  0.84559597    -0.82400
C151        C  0.94975004  0.72462046  0.91563367     0.98600
C152        C  0.96456638  0.68115362  0.82124286     1.04600
O153        O  0.94045202  0.73672076  0.88359869    -0.78000
C154        C  0.87728213  0.68075518  0.94300168     1.02900
Fe155      Fe  0.68615999  0.87577476  0.83961870     1.65800
Fe156      Fe  0.66859929  0.93100532  0.88229127     1.73200
Fe157      Fe  0.72153042  0.92687019  0.81982957     1.54400
O158        O  0.74524168  0.89749814  0.83197472    -0.81800
O159        O  0.66643592  0.95836612  0.83523123    -0.80100
O160        O  0.72179327  0.86618994  0.85246541    -0.84300
O161        O  0.69296222  0.87801924  0.77207515    -0.79100
O162        O  0.73244219  0.94217899  0.87956397    -0.80900
O163        O  0.63747490  0.91565195  0.85421149    -0.83700
C164        C  0.70211044  0.89359181  0.74506065     0.97100
C165        C  0.74270213  0.87543176  0.84483681     1.04500
O166        O  0.69211298  0.91120262  0.84729542    -1.12600
O167        O  0.66759402  0.90619604  0.93368050    -0.75100
O168        O  0.67851755  0.86977078  0.90632868    -0.78600
O169        O  0.71274723  0.91311178  0.75782324    -0.79200
C170        C  0.67119188  0.88333074  0.93824172     0.96000
O171        O  0.64933714  0.87985690  0.82584633    -0.77200
O172        O  0.69672738  0.94856707  0.91544968    -0.82400
C173        C  0.68200890  0.96833565  0.80944396     0.98600
C174        C  0.72000373  0.95070473  0.91212476     1.04600
O175        O  0.70324060  0.95912277  0.80258587    -0.78000
C176        C  0.63275330  0.89559920  0.83452239     1.02900
Fe177      Fe  0.37189925  0.20038138  0.33656425     1.65800
Fe178      Fe  0.42587507  0.17889153  0.37871742     1.73200
Fe179      Fe  0.42557640  0.23068597  0.31391199     1.54400
O180        O  0.41154154  0.22171935  0.25272345    -0.81800
O181        O  0.44708064  0.20566403  0.40837092    -0.80100
O182        O  0.37345426  0.20960997  0.26987119    -0.84300
O183        O  0.36603255  0.23630121  0.35505807    -0.79100
O184        O  0.45663287  0.20958255  0.29850638    -0.80900
O185        O  0.40207689  0.18182196  0.43169006    -0.83700
C186        C  0.37641994  0.25615230  0.34355914     0.97100
C187        C  0.39003866  0.21515628  0.24153347     1.04500
O188        O  0.40781504  0.20328151  0.34310236    -1.12600
O189        O  0.40665620  0.14914542  0.35338185    -0.75100
O190        O  0.37381462  0.16384667  0.31772220    -0.78600
O191        O  0.39741882  0.25654739  0.32445461    -0.79200
C192        C  0.38757079  0.14603154  0.32946338     0.96000
O193        O  0.36552802  0.19065660  0.40235914    -0.77200
O194        O  0.45220814  0.17296958  0.33042943    -0.82400
C195        C  0.45051706  0.22865594  0.40426788     0.98600
C196        C  0.46392800  0.18767167  0.30542534     1.04600
O197        O  0.44154342  0.24148642  0.37279572    -0.78000
C198        C  0.37900823  0.18490977  0.43536500     1.02900
Fe199      Fe  0.18543960  0.37937632  0.33473621     1.65800
Fe200      Fe  0.16775837  0.43451066  0.37852918     1.73200
Fe201      Fe  0.22055754  0.43048139  0.31470409     1.54400
O202        O  0.24482052  0.40355197  0.33642856    -0.81800
O203        O  0.16684018  0.46267058  0.33281495    -0.80100
O204        O  0.22191388  0.37023478  0.34601415    -0.84300
O205        O  0.19083365  0.38120005  0.26751209    -0.79100
O206        O  0.22935094  0.45029239  0.37153347    -0.80900
O207        O  0.13679367  0.42035738  0.34804371    -0.83700
C208        C  0.20275479  0.39473003  0.24077767     0.97100
C209        C  0.24263921  0.38099945  0.34643120     1.04500
O210        O  0.19125184  0.41484382  0.34262937    -1.12600
O211        O  0.16594182  0.40897691  0.42906647    -0.75100
O212        O  0.17923847  0.37337329  0.40120457    -0.78600
O213        O  0.21525044  0.41308086  0.25373549    -0.79200
C214        C  0.17138600  0.38642716  0.43320049     0.96000
O215        O  0.14808427  0.38366530  0.32235252    -0.77200
O216        O  0.19547117  0.45108492  0.41390144    -0.82400
C217        C  0.18036974  0.47009456  0.30096875     0.98600
C218        C  0.21787241  0.45650117  0.40684617     1.04600
O219        O  0.20034753  0.45950006  0.28988286    -0.78000
C220        C  0.13189117  0.40022356  0.32879848     1.02900
Fe221      Fe  0.83773766  0.38048239  0.70272097     1.65800
Fe222      Fe  0.85339877  0.43497334  0.65604335     1.73200
Fe223      Fe  0.80120369  0.43116669  0.72064670     1.54400
O224        O  0.77752271  0.40350596  0.69973385    -0.81800
O225        O  0.85179568  0.46530905  0.69690554    -0.80100
O226        O  0.80137655  0.37014294  0.69759111    -0.84300
O227        O  0.83437450  0.38405261  0.77021265    -0.79100
O228        O  0.79216534  0.45058585  0.66335078    -0.80900
O229        O  0.88438430  0.42396254  0.69076551    -0.83700
C230        C  0.82079248  0.39691419  0.79563097     0.97100
C231        C  0.78037729  0.38044007  0.69546821     1.04500
O232        O  0.83068743  0.41557937  0.69319636    -1.12600
O233        O  0.85847944  0.40749722  0.60930119    -0.75100
O234        O  0.84167672  0.37327181  0.63565662    -0.78600
O235        O  0.80685664  0.41408108  0.78163674    -0.79200
C236        C  0.85200700  0.38526648  0.60456373     0.96000
O237        O  0.87532737  0.38564392  0.71029853    -0.77200
O238        O  0.82481906  0.44804866  0.61796959    -0.82400
C239        C  0.83938906  0.47262326  0.73035821     0.98600
C240        C  0.80282788  0.45479711  0.62625419     1.04600
O241        O  0.82095113  0.46077747  0.74513361    -0.78000
C242        C  0.89043819  0.40334089  0.70729289     1.02900
Fe243      Fe  0.65665853  0.19389697  0.69141137     1.65800
Fe244      Fe  0.60174156  0.17294738  0.65203950     1.73200
Fe245      Fe  0.60341368  0.22612649  0.71302820     1.54400
O246        O  0.61908463  0.21911105  0.77416879    -0.81800
O247        O  0.58211682  0.19961421  0.61852156    -0.80100
O248        O  0.65572471  0.20252864  0.75825185    -0.84300
O249        O  0.66346535  0.22971446  0.67362939    -0.79100
O250        O  0.57294771  0.20594021  0.73358456    -0.80900
O251        O  0.62592536  0.17282228  0.59931443    -0.83700
C252        C  0.65256773  0.24999559  0.68055125     0.97100
C253        C  0.63986128  0.21052467  0.78601953     1.04500
O254        O  0.62058248  0.19766034  0.68548965    -1.12600
O255        O  0.61933951  0.14340228  0.68168929    -0.75100
O256        O  0.65445675  0.15734574  0.71004129    -0.78600
O257        O  0.63094189  0.25118436  0.69692061    -0.79200
C258        C  0.63927530  0.14008119  0.70311180     0.96000
O259        O  0.66220788  0.18481858  0.62525861    -0.77200
O260        O  0.57471746  0.16974324  0.69976793    -0.82400
C261        C  0.57824794  0.22258056  0.62190400     0.98600
C262        C  0.56444972  0.18458257  0.72660536     1.04600
O263        O  0.58595525  0.23541618  0.65434337    -0.78000
C264        C  0.64860830  0.17730387  0.59375935     1.02900
Fe265      Fe  0.65080759  0.84183368  0.33794313     1.65800
Fe266      Fe  0.59665947  0.86318440  0.37936161     1.73200
Fe267      Fe  0.59780965  0.81003295  0.32060752     1.54400
O268        O  0.61014174  0.81931591  0.25809014    -0.81800
O269        O  0.57541830  0.83662108  0.41084481    -0.80100
O270        O  0.64912669  0.82975170  0.27253091    -0.84300
O271        O  0.65753071  0.80687362  0.36113457    -0.79100
O272        O  0.56500407  0.82930915  0.30799124    -0.80900
O273        O  0.62016902  0.86127048  0.43256440    -0.83700
C274        C  0.64844033  0.78682743  0.34762778     0.97100
C275        C  0.63180898  0.82482566  0.24539441     1.04500
O276        O  0.61514486  0.83838741  0.34614694    -1.12600
O277        O  0.61598393  0.89265738  0.35253474    -0.75100
O278        O  0.64775453  0.87738754  0.31421424    -0.78600
O279        O  0.62759811  0.78576904  0.32830997    -0.79200
C280        C  0.63438534  0.89538709  0.32651231     0.89600
O281        O  0.65703831  0.85448902  0.40206925    -0.77200
O282        O  0.57110759  0.86781624  0.32932694    -0.82400
C283        C  0.57394092  0.81324729  0.41131590     0.98600
C284        C  0.55823916  0.85172116  0.30984703     1.04600
O285        O  0.58429296  0.79962915  0.38221113    -0.78000
C286        C  0.64345830  0.85992630  0.43526668     1.02900
Fe287      Fe  0.83897479  0.66063674  0.34078914     1.65800
Fe288      Fe  0.85682294  0.60613465  0.38585126     1.73200
Fe289      Fe  0.80383680  0.60935618  0.32397045     1.54400
O290        O  0.78046584  0.63901382  0.33755876    -0.81800
O291        O  0.85936100  0.57885024  0.33933283    -0.80100
O292        O  0.80398368  0.66983061  0.36059584    -0.84300
O293        O  0.82824375  0.65930591  0.27503522    -0.79100
O294        O  0.79347091  0.59375605  0.38387718    -0.80900
O295        O  0.88767489  0.62210235  0.35651400    -0.83700
C296        C  0.81932304  0.64362856  0.24834183     0.97100
C297        C  0.78298474  0.66067535  0.35288742     1.04500
O298        O  0.83318048  0.62533011  0.35024786    -1.12600
O299        O  0.85716366  0.63096866  0.43693456    -0.75100
O300        O  0.85043253  0.66733426  0.40548147    -0.78600
O301        O  0.81135131  0.62288663  0.26109030    -0.79200
C302        C  0.85591642  0.65415799  0.43899602     0.96000
O303        O  0.87478093  0.65519047  0.31951306    -0.77200
O304        O  0.82910890  0.58768131  0.41966322    -0.82400
C305        C  0.84406311  0.56854441  0.31370886     0.98600
C306        C  0.80592276  0.58483838  0.41593762     1.04600
O307        O  0.82268325  0.57737821  0.30649037    -0.78000
C308        C  0.89171201  0.64027232  0.33076829     1.02900
Fe309      Fe  0.36907560  0.84310797  0.70297004     1.65800
Fe310      Fe  0.42432332  0.86215427  0.66212658     1.73200
Fe311      Fe  0.42146326  0.80997375  0.72582374     1.54400
O312        O  0.40609599  0.81826462  0.78712521    -0.81800
O313        O  0.44386859  0.83466154  0.63053864    -0.80100
O314        O  0.36912449  0.83348774  0.76979762    -0.84300
O315        O  0.36200984  0.80754143  0.68317084    -0.79100
O316        O  0.45250152  0.82950832  0.74480007    -0.80900
O317        O  0.40076474  0.86182572  0.60898318    -0.83700
C318        C  0.37240254  0.78712800  0.69168070     0.97100
C319        C  0.38489819  0.82618937  0.79826531     1.04500
O320        O  0.40498398  0.83843704  0.69698384    -1.12600
O321        O  0.40673832  0.89254102  0.68921012    -0.75100
O322        O  0.37251870  0.87940104  0.72292823    -0.78600
O323        O  0.39325106  0.78568425  0.71078860    -0.79200
C324        C  0.38750340  0.89641059  0.71260199     0.96000
O325        O  0.36383753  0.85359079  0.63710271    -0.77200
O326        O  0.45070551  0.86558637  0.71040501    -0.82400
C327        C  0.44718206  0.81165445  0.63476594     0.98600
C328        C  0.46102903  0.85080351  0.73716914     1.04600
O329        O  0.43870727  0.79928075  0.66732516    -0.78000
C330        C  0.37768779  0.85958659  0.60466942     1.02900
Fe331      Fe  0.18914227  0.65776801  0.70396104     1.65800
Fe332      Fe  0.17175985  0.60257078  0.66250402     1.73200
Fe333      Fe  0.22611912  0.60692908  0.72107116     1.54400
O334        O  0.24932594  0.63548920  0.70068009    -0.81800
O335        O  0.17211234  0.57507541  0.70849228    -0.80100
O336        O  0.22453100  0.66738278  0.68896281    -0.84300
O337        O  0.19689874  0.65613323  0.77081829    -0.79100
O338        O  0.23487878  0.58876010  0.66205709    -0.80900
O339        O  0.14116688  0.61664516  0.69499676    -0.83700
C340        C  0.20864682  0.64181015  0.79664720     0.97100
C341        C  0.24583028  0.65785669  0.68988272     1.04500
O342        O  0.19575072  0.62238797  0.69590253    -1.12600
O343        O  0.16839659  0.62754860  0.61169103    -0.75100
O344        O  0.18085608  0.66358686  0.63773378    -0.78600
O345        O  0.22037583  0.62297495  0.78298286    -0.79200
C346        C  0.17270345  0.65019838  0.60651361     0.96000
O347        O  0.15243914  0.65316683  0.72023847    -0.77200
O348        O  0.19906199  0.58592652  0.62594969    -0.82400
C349        C  0.18673346  0.56646781  0.73739441     0.98600
C350        C  0.22203549  0.58180380  0.62894609     1.04600
O351        O  0.20758298  0.57612285  0.74538579    -0.78000
C352        C  0.13628419  0.63666490  0.71477280     1.02900
C353        C  0.34624462  0.72246212  0.69703711    -0.27700
C354        C  0.32855720  0.72341479  0.66291606     0.01900
C355        C  0.32790948  0.74406021  0.63444095     0.30000
C356        C  0.34296548  0.76431813  0.64313270    -0.19500
C357        C  0.35932113  0.76419755  0.67949501    -0.28900
C358        C  0.36162256  0.74258832  0.70537022     0.44000
C359        C  0.30769388  0.70583400  0.66381243     0.05200
O360        O  0.31146574  0.74522583  0.59972811    -0.57400
H361        H  0.34130201  0.78047937  0.62213754     0.18100
O362        O  0.37760054  0.74149360  0.74079198    -0.64100
H363        H  0.34685491  0.70686087  0.71953656     0.16600
C364        C  0.31103732  0.68013583  0.66302615     0.28800
C365        C  0.29077745  0.66446959  0.67039018    -0.25000
C366        C  0.26710063  0.67417653  0.67915385    -0.24300
C367        C  0.26401002  0.70005080  0.67906604     0.40300
C368        C  0.28403197  0.71540235  0.67107660    -0.26800
O369        O  0.33388900  0.67024706  0.65445343    -0.58700
H370        H  0.29368113  0.64476416  0.66982359     0.15900
O371        O  0.24163886  0.71080926  0.68841702    -0.60100
H372        H  0.28120444  0.73511525  0.67279102     0.14400
H373        H  0.36813315  0.74796093  0.76668668     0.46200
H374        H  0.34015613  0.66459887  0.68384521     0.41600
H375        H  0.24149268  0.71319634  0.72128470     0.45100
H376        H  0.31956113  0.73623287  0.57483984     0.36500
C377        C  0.68565337  0.72957315  0.32057461    -0.27700
C378        C  0.69788060  0.72540786  0.36124020     0.01900
C379        C  0.69193459  0.74017453  0.39841512     0.30000
C380        C  0.67502685  0.75955725  0.39405481    -0.19500
C381        C  0.66338063  0.76423789  0.35308898    -0.28900
C382        C  0.66852313  0.74883640  0.31631148     0.44000
C383        C  0.71887988  0.70782549  0.36310498     0.05200
O384        O  0.70325340  0.73632085  0.43877106    -0.57400
H385        H  0.67136653  0.77130890  0.42255166     0.18100
O386        O  0.65812204  0.75340802  0.27536320    -0.64100
H387        H  0.69036424  0.71870991  0.29141835     0.16600
C388        C  0.71627117  0.68291477  0.35152629     0.28800
C389        C  0.73706012  0.66740770  0.35029041    -0.25000
C390        C  0.76076245  0.67646790  0.36001229    -0.24300
C391        C  0.76303405  0.70137837  0.37303660     0.40300
C392        C  0.74226669  0.71665845  0.37448140    -0.26800
O393        O  0.69343181  0.67350560  0.34211787    -0.58700
H394        H  0.73463215  0.64839559  0.34062203     0.15900
O395        O  0.78549024  0.71126402  0.38383601    -0.60100
H396        H  0.74460174  0.73582725  0.38325222     0.14400
H397        H  0.66894686  0.76580751  0.26103438     0.46200
H398        H  0.69284499  0.67215504  0.30908646     0.41600
H399        H  0.79142019  0.71933086  0.35608532     0.45100
H400        H  0.69204584  0.72523885  0.45548965     0.36500
C401        C  0.50162007  0.77985406  0.58219160    -0.27700
C402        C  0.49989348  0.78880399  0.53831382     0.01900
C403        C  0.47828501  0.80109352  0.52465718     0.30000
C404        C  0.45987828  0.80648777  0.55592421    -0.19500
C405        C  0.46261632  0.79951498  0.60078042    -0.28900
C406        C  0.48288512  0.78479884  0.61331217     0.44000
C407        C  0.52211352  0.78999517  0.50979114     0.05200
O408        O  0.47596606  0.80974991  0.48176710    -0.57400
H409        H  0.44421538  0.81760768  0.54577302     0.18100
O410        O  0.48595814  0.77765044  0.65691209    -0.64100
H411        H  0.51823568  0.77047044  0.59303064     0.16600
C412        C  0.54116619  0.80631380  0.52118937     0.28800
C413        C  0.55917488  0.81233655  0.48963416    -0.25000
C414        C  0.55864250  0.80209745  0.44664478    -0.24300
C415        C  0.54090373  0.78408404  0.43657754     0.40300
C416        C  0.52251073  0.77841518  0.46794079    -0.26800
O417        O  0.54129653  0.81784381  0.56196585    -0.58700
H418        H  0.57284196  0.82606562  0.49797940     0.15900
O419        O  0.53985722  0.77383560  0.39478426    -0.60100
H420        H  0.50780018  0.76599666  0.45876456     0.14400
H421        H  0.47949106  0.76064824  0.65830957     0.46200
H422        H  0.53113647  0.83288656  0.55792538     0.41600
H423        H  0.54826998  0.75769469  0.39768502     0.45100
H424        H  0.48225964  0.82683288  0.48261312     0.36500
C425        C  0.70301722  0.29323889  0.64190779    -0.27700
C426        C  0.69887838  0.31351166  0.66983777     0.01900
C427        C  0.67731879  0.31441142  0.69606276     0.30000
C428        C  0.66116703  0.29431315  0.69667632    -0.19500
C429        C  0.66642168  0.27302437  0.67163849    -0.28900
C430        C  0.68690030  0.27321386  0.64228775     0.44000
C431        C  0.71905464  0.33135469  0.67675246     0.05200
O432        O  0.67269288  0.33417991  0.72327142    -0.57400
H433        H  0.64545133  0.29476433  0.71912813     0.18100
O434        O  0.69204822  0.25342744  0.61540214    -0.64100
H435        H  0.71949591  0.29243169  0.62133581     0.16600
C436        C  0.74018322  0.32396084  0.70040714     0.28800
C437        C  0.75966095  0.34030256  0.70648574    -0.25000
C438        C  0.75865598  0.36429516  0.68912545    -0.24300
C439        C  0.73729378  0.37188455  0.66586504     0.40300
C440        C  0.71759994  0.35542121  0.65994479    -0.26800
O441        O  0.74167167  0.30086439  0.71869190    -0.58700
H442        H  0.77565066  0.33414179  0.72514177     0.15900
O443        O  0.73567902  0.39506074  0.64804446    -0.60100
H444        H  0.70137926  0.36129013  0.64167161     0.14400
H445        H  0.68356012  0.25699114  0.58678496     0.46200
H446        H  0.75101352  0.29091206  0.69658643     0.41600
H447        H  0.74165947  0.39340179  0.61682119     0.45100
H448        H  0.68074404  0.33010922  0.75208807     0.36500
C449        C  0.76980719  0.53221618  0.46505123    -0.27700
C450        C  0.77839746  0.53222635  0.50917630     0.01900
C451        C  0.79296660  0.55192100  0.52421526     0.30000
C452        C  0.80055232  0.57008341  0.49406876    -0.19500
C453        C  0.79338496  0.56913242  0.44909211    -0.28900
C454        C  0.77703651  0.55060009  0.43508977     0.44000
C455        C  0.77791315  0.50915574  0.53509115     0.05200
O456        O  0.80234226  0.55192006  0.56676876    -0.57400
H457        H  0.81320315  0.58415167  0.50526420     0.18100
O458        O  0.77051171  0.54852529  0.39100949    -0.64100
H459        H  0.75906587  0.51686521  0.45291899     0.16600
C460        C  0.76698356  0.50769338  0.57767170     0.28800
C461        C  0.77297085  0.48799391  0.60600146    -0.25000
C462        C  0.79020328  0.47006039  0.59234591    -0.24300
C463        C  0.79853079  0.47007524  0.54764107     0.40300
C464        C  0.79245115  0.48959182  0.51953690    -0.26800
O465        O  0.75128599  0.52586091  0.59227680    -0.58700
H466        H  0.76583348  0.48800654  0.63986626     0.15900
O467        O  0.81429616  0.45220633  0.53211830    -0.60100
H468        H  0.80074594  0.49040330  0.48655427     0.14400
H469        H  0.75431123  0.55695449  0.38864650     0.46200
H470        H  0.76063763  0.53512843  0.61512064     0.41600
H471        H  0.80349158  0.43846431  0.52290260     0.45100
H472        H  0.79285852  0.56475593  0.58298798     0.36500
C473        C  0.25365894  0.50833018  0.45962255    -0.27700
C474        C  0.24483255  0.50723034  0.50366834     0.01900
C475        C  0.23043775  0.48708229  0.51720083     0.30000
C476        C  0.22317028  0.46958412  0.48578065    -0.19500
C477        C  0.23040731  0.47164892  0.44081213    -0.28900
C478        C  0.24682487  0.49050583  0.42831681     0.44000
C479        C  0.24499092  0.52956534  0.53152695     0.05200
O480        O  0.22098150  0.48594384  0.55973934    -0.57400
H481        H  0.21066005  0.45515152  0.49609620     0.18100
O482        O  0.25402003  0.49332859  0.38464846    -0.64100
H483        H  0.26439779  0.52399793  0.44874031     0.16600
C484        C  0.25723568  0.53048033  0.57286685     0.28800
C485        C  0.25162883  0.54938190  0.60324999    -0.25000
C486        C  0.23340409  0.56696437  0.59298273    -0.24300
C487        C  0.22308764  0.56724506  0.54973340     0.40300
C488        C  0.22891824  0.54864131  0.51949605    -0.26800
O489        O  0.27391415  0.51252465  0.58431721    -0.58700
H490        H  0.25999158  0.54904598  0.63609200     0.15900
O491        O  0.20582187  0.58455793  0.53782740    -0.60100
H492        H  0.21941401  0.54810740  0.48767729     0.14400
H493        H  0.26993222  0.48435437  0.38221424     0.46200
H494        H  0.26539879  0.50217372  0.60682702     0.41600
H495        H  0.21542618  0.59839791  0.52517783     0.45100
H496        H  0.23174388  0.47412638  0.57583441     0.36500
C497        C  0.34413615  0.31758241  0.32598426    -0.27700
C498        C  0.32941645  0.31906249  0.36476622     0.01900
C499        C  0.33307766  0.30149155  0.39884155     0.30000
C500        C  0.34929443  0.28173114  0.39214868    -0.19500
C501        C  0.36286125  0.27941104  0.35232881    -0.28900
C502        C  0.36087434  0.29805723  0.31975299     0.44000
C503        C  0.30803414  0.33647948  0.36645169     0.05200
O504        O  0.32006387  0.30287032  0.43815269    -0.57400
H505        H  0.35081042  0.26776169  0.41785351     0.18100
O506        O  0.37392440  0.29653461  0.28048427    -0.64100
H507        H  0.34155039  0.33065952  0.29908075     0.16600
C508        C  0.31015353  0.36142270  0.35422133     0.28800
C509        C  0.28885971  0.37612382  0.34981915    -0.25000
C510        C  0.26517287  0.36633907  0.35744430    -0.24300
C511        C  0.26338616  0.34190775  0.37310299     0.40300
C512        C  0.28454625  0.32727052  0.37693942    -0.26800
O513        O  0.33294939  0.37163990  0.34717455    -0.58700
H514        H  0.29092874  0.39502135  0.33906860     0.15900
O515        O  0.24102704  0.33198703  0.38472094    -0.60100
H516        H  0.28234083  0.30820049  0.38649871     0.14400
H517        H  0.36250925  0.28883705  0.25881016     0.46200
H518        H  0.33383905  0.37509998  0.31465689     0.41600
H519        H  0.23620675  0.32158553  0.35901473     0.45100
H520        H  0.33108073  0.31158567  0.45919066     0.36500
C521        C  0.48299884  0.24159814  0.51173103    -0.27700
C522        C  0.50553979  0.25071737  0.49563144     0.01900
C523        C  0.50795557  0.25657092  0.44995354     0.30000
C524        C  0.48863069  0.25147455  0.42059175    -0.19500
C525        C  0.46703240  0.24029811  0.43634981    -0.28900
C526        C  0.46382522  0.23632485  0.48235502     0.44000
C527        C  0.52734585  0.24904841  0.52491629     0.05200
O528        O  0.52981286  0.26531461  0.43322419    -0.57400
H529        H  0.49132641  0.25435145  0.38505838     0.18100
O530        O  0.44275274  0.22554970  0.49841155    -0.64100
H531        H  0.48095362  0.23655621  0.54657474     0.16600
C532        C  0.52700136  0.25882473  0.56846098     0.28800
C533        C  0.54511692  0.25167521  0.59918971    -0.25000
C534        C  0.56321248  0.23436776  0.58710719    -0.24300
C535        C  0.56469485  0.22622071  0.54253408     0.40300
C536        C  0.54683917  0.23356876  0.51184180    -0.26800
O537        O  0.50858020  0.27469303  0.58148141    -0.58700
H538        H  0.54392325  0.25828422  0.63328472     0.15900
O539        O  0.58264464  0.20989013  0.52929036    -0.60100
H540        H  0.54723520  0.22567960  0.47860313     0.14400
H541        H  0.43134058  0.23939202  0.50493901     0.46200
H542        H  0.49812018  0.26526269  0.60261605     0.41600
H543        H  0.59771907  0.21990688  0.52504962     0.45100
H544        H  0.52843621  0.28345018  0.43533296     0.36500
C545        C  0.64507705  0.02397428  0.77110777    -0.27700
C546        C  0.66379217  0.04047331  0.75894092     0.01900
C547        C  0.68855930  0.03233905  0.76031474     0.30000
C548        C  0.69421866  0.00853410  0.77522272    -0.19500
C549        C  0.67546817  0.99227017  0.78851814    -0.28900
C550        C  0.65066472  0.00006126  0.78514935     0.44000
C551        C  0.65720304  0.06604614  0.74526039     0.05200
O552        O  0.70743492  0.04753936  0.74751774    -0.57400
H553        H  0.71341703  0.00303345  0.77741433     0.18100
O554        O  0.63165522  0.98432715  0.79481282    -0.64100
H555        H  0.62593530  0.02974007  0.77064659     0.16600
C556        C  0.63820822  0.07060144  0.71418552     0.28800
C557        C  0.63236611  0.09473199  0.70167339    -0.25000
C558        C  0.64518135  0.11487354  0.71945873    -0.24300
C559        C  0.66384144  0.11034657  0.75138417     0.40300
C560        C  0.66965132  0.08616925  0.76397491    -0.26800
O561        O  0.62611840  0.05151240  0.69396764    -0.58700
H562        H  0.61805438  0.09756116  0.67697010     0.15900
O563        O  0.67663285  0.12931624  0.77047001    -0.60100
H564        H  0.68385839  0.08316772  0.78881047     0.14400
H565        H  0.62571515  0.98919516  0.82493036     0.46200
H566        H  0.60902558  0.05206348  0.70591833     0.41600
H567        H  0.66677136  0.13419701  0.79702112     0.45100
H568        H  0.70843489  0.04593075  0.71455046     0.36500
C569        C  0.64803840  0.87392398  0.05671984    -0.27700
C570        C  0.65539442  0.84968059  0.06497103     0.01900
C571        C  0.66814273  0.83643551  0.03188560     0.30000
C572        C  0.67338379  0.84761539  0.99079860    -0.19500
C573        C  0.66612711  0.87206207  0.98236014    -0.28900
C574        C  0.65323319  0.88516780  0.01597231     0.44000
C575        C  0.64936934  0.83880854  0.10860407     0.05200
O576        O  0.67449105  0.81228884  0.03873047    -0.57400
H577        H  0.68300847  0.83704009  0.96547012     0.18100
O578        O  0.64466628  0.90861587  0.00890844    -0.64100
H579        H  0.63811929  0.88421300  0.08211891     0.16600
C580        C  0.66809790  0.83244448  0.13888392     0.28800
C581        C  0.66194741  0.82621564  0.18275880    -0.25000
C582        C  0.63723407  0.82675768  0.19724556    -0.24300
C583        C  0.61843069  0.83209424  0.16616149     0.40300
C584        C  0.62462106  0.83793485  0.12215522    -0.26800
O585        O  0.69248603  0.83370087  0.12670025    -0.58700
H586        H  0.67668868  0.82211272  0.20603476     0.15900
O587        O  0.59410088  0.83312954  0.17888133    -0.60100
H588        H  0.61011448  0.84301453  0.09900837     0.14400
H589        H  0.65699836  0.91951377  0.02308676     0.46200
H590        H  0.69779324  0.85051157  0.13496160     0.41600
H591        H  0.59124002  0.85038021  0.18835012     0.45100
H592        H  0.69258608  0.81229244  0.04354989     0.36500
C593        C  0.69373324  0.90313804  0.62029240    -0.27700
C594        C  0.68583252  0.87968243  0.60765030     0.01900
C595        C  0.68611285  0.86041064  0.63883096     0.30000
C596        C  0.69289786  0.86499365  0.68289787    -0.19500
C597        C  0.69920730  0.88881515  0.69676178    -0.28900
C598        C  0.70032013  0.90786984  0.66466378     0.44000
C599        C  0.67511916  0.87572764  0.56319668     0.05200
O600        O  0.67953692  0.83706330  0.62640429    -0.57400
H601        H  0.69239529  0.84992981  0.70659394     0.18100
O602        O  0.70673555  0.93133630  0.67649472    -0.64100
H603        H  0.69362111  0.91804766  0.59624849     0.16600
C604        C  0.65001960  0.86975815  0.55930508     0.28800
C605        C  0.64016314  0.86434703  0.51758425    -0.25000
C606        C  0.65492941  0.86517853  0.47893790    -0.24300
C607        C  0.68000005  0.87193391  0.48279342     0.40300
C608        C  0.68991616  0.87713747  0.52486553    -0.26800
O609        O  0.63499192  0.86901093  0.59627290    -0.58700
H610        H  0.62084138  0.85943006  0.51560392     0.15900
O611        O  0.69495361  0.87360303  0.44586187    -0.60100
H612        H  0.70922819  0.88196179  0.52768280     0.14400
H613        H  0.69099809  0.93957706  0.68469296     0.46200
H614        H  0.62958352  0.88624146  0.60110710     0.41600
H615        H  0.69290498  0.89071382  0.43497796     0.45100
H616        H  0.66301420  0.83431956  0.63981045     0.36500
C617        C  0.51898100  0.88687286  0.76430685    -0.27700
C618        C  0.53242756  0.86972285  0.78927117     0.01900
C619        C  0.52156442  0.84709663  0.80049629     0.30000
C620        C  0.49779319  0.84156370  0.78516863    -0.19500
C621        C  0.48462192  0.85832936  0.75830236    -0.28900
C622        C  0.49533992  0.88147073  0.74896965     0.44000
C623        C  0.55800814  0.87573350  0.80208949     0.05200
O624        O  0.53386801  0.83056493  0.82711427    -0.57400
H625        H  0.48998082  0.82383528  0.79343453     0.18100
O626        O  0.48339702  0.89870962  0.72337903    -0.64100
H627        H  0.52715253  0.90439201  0.75561119     0.16600
C628        C  0.57799112  0.86142637  0.78689470     0.28800
C629        C  0.60212453  0.86830267  0.79723242    -0.25000
C630        C  0.60690025  0.88965639  0.82230355    -0.24300
C631        C  0.58672389  0.90407579  0.83712856     0.40300
C632        C  0.56259247  0.89711070  0.82674977    -0.26800
O633        O  0.57416416  0.84097636  0.76109702    -0.58700
H634        H  0.61714614  0.85685207  0.78525082     0.15900
O635        O  0.59024547  0.92501356  0.86172678    -0.60100
H636        H  0.54732729  0.90845094  0.83809416     0.14400
H637        H  0.47405866  0.90901378  0.74495674     0.46200
H638        H  0.57468796  0.84694213  0.72977170     0.41600
H639        H  0.58884343  0.91974644  0.89337979     0.45100
H640        H  0.53834551  0.81665505  0.80724485     0.36500
C641        C  0.02447529  0.64499502  0.80538301    -0.27700
C642        C  0.03659777  0.65932475  0.77326805     0.01900
C643        C  0.02443660  0.67987120  0.75500474     0.30000
C644        C  0.00070500  0.68625201  0.76978678    -0.19500
C645        C  0.98867753  0.67242964  0.80304276    -0.28900
C646        C  0.00075810  0.65134105  0.82035294     0.44000
C647        C  0.06217208  0.65305115  0.75974930     0.05200
O648        O  0.03545426  0.69348935  0.72193977    -0.57400
H649        H  0.99184696  0.70230062  0.75546025     0.18100
O650        O  0.99018242  0.63744960  0.85348769    -0.64100
H651        H  0.03370542  0.62914862  0.81973197     0.16600
C652        C  0.08169187  0.66927549  0.76843984     0.28800
C653        C  0.10564011  0.66345445  0.75437515    -0.25000
C654        C  0.11073920  0.64143877  0.73135312    -0.24300
C655        C  0.09105601  0.62501789  0.72321818     0.40300
C656        C  0.06711569  0.63079496  0.73788862    -0.26800
O657        O  0.07752084  0.69097954  0.79053318    -0.58700
H658        H  0.12022487  0.67644569  0.76128408     0.15900
O659        O  0.09482809  0.60340097  0.70062223    -0.60100
H660        H  0.05221780  0.61811202  0.73119511     0.14400
H661        H  0.98190881  0.62374715  0.83774894     0.46200
H662        H  0.07933037  0.68695318  0.82269700     0.41600
H663        H  0.09068342  0.60712515  0.66905289     0.45100
H664        H  0.04038469  0.70909452  0.73641703     0.36500
C665        C  0.84724324  0.81188076  0.83268883    -0.27700
C666        C  0.82756795  0.81101644  0.86331519     0.01900
C667        C  0.82646754  0.79145344  0.89417457     0.30000
C668        C  0.84339144  0.77213746  0.89139216    -0.19500
C669        C  0.86195423  0.77198143  0.85850841    -0.28900
C670        C  0.86444369  0.79259065  0.83023226     0.44000
C671        C  0.80642378  0.82827317  0.85890730     0.05200
O672        O  0.80798618  0.79031416  0.92555692    -0.57400
H673        H  0.84134764  0.75671611  0.91404429     0.18100
O674        O  0.88253380  0.79336891  0.79811800    -0.64100
H675        H  0.84834623  0.82664998  0.80849573     0.16600
C676        C  0.80937738  0.85395994  0.85634374     0.28800
C677        C  0.78855694  0.86929377  0.85218483    -0.25000
C678        C  0.76468164  0.85929616  0.84995415    -0.24300
C679        C  0.76204417  0.83345629  0.85099146     0.40300
C680        C  0.78268761  0.81837743  0.85546235    -0.26800
O681        O  0.83237672  0.86424429  0.85933431    -0.58700
H682        H  0.79112477  0.88901400  0.85090474     0.15900
O683        O  0.73938976  0.82252396  0.84694368    -0.60100
H684        H  0.78009812  0.79863743  0.85548179     0.14400
H685        H  0.87499795  0.78606884  0.77106006     0.46200
H686        H  0.83637405  0.86995774  0.82866782     0.41600
H687        H  0.73724226  0.81970269  0.81443779     0.45100
H688        H  0.81441813  0.79928925  0.95184596     0.36500
C689        C  0.86314352  0.68024744  0.06674615    -0.27700
C690        C  0.84032281  0.66824385  0.06739143     0.01900
C691        C  0.82889498  0.66184020  0.02703859     0.30000
C692        C  0.84069818  0.66695097  0.98646889    -0.19500
C693        C  0.86413476  0.67792339  0.98580405    -0.28900
C694        C  0.87517624  0.68494857  0.02640480     0.44000
C695        C  0.82958680  0.66158773  0.11089082     0.05200
O696        O  0.80612228  0.65091819  0.02706277    -0.57400
H697        H  0.83185957  0.66155740  0.95558247     0.18100
O698        O  0.89748693  0.69679362  0.02700668    -0.64100
H699        H  0.87198827  0.68537676  0.09779909     0.16600
C700        C  0.82799504  0.63681434  0.12411290     0.28800
C701        C  0.82266421  0.63100306  0.16862619    -0.25000
C702        C  0.81940060  0.64973716  0.20035775    -0.24300
C703        C  0.81909074  0.67447363  0.18611956     0.40300
C704        C  0.82435698  0.68022235  0.14171247    -0.26800
O705        O  0.83333701  0.61824835  0.09459618    -0.58700
H706        H  0.82285935  0.61189893  0.17888384     0.15900
O707        O  0.81481189  0.69324613  0.21575310    -0.60100
H708        H  0.82545163  0.69933621  0.13168895     0.14400
H709        H  0.90981956  0.68393167  0.03450246     0.46200
H710        H  0.85148835  0.61601802  0.09617267     0.41600
H711        H  0.79669450  0.69587760  0.21531103     0.45100
H712        H  0.80917272  0.63356635  0.01848843     0.36500
C713        C  0.85871445  0.70266105  0.63886817    -0.27700
C714        C  0.87843782  0.69697309  0.61028701     0.01900
C715        C  0.90277752  0.69875847  0.62603262     0.30000
C716        C  0.90707679  0.70433236  0.67092341    -0.19500
C717        C  0.88728289  0.70794519  0.70067456    -0.28900
C718        C  0.86296696  0.70827518  0.68375403     0.44000
C719        C  0.87331448  0.68669446  0.56572968     0.05200
O720        O  0.92239056  0.69483272  0.59772693    -0.57400
H721        H  0.92593961  0.70459195  0.68280972     0.18100
O722        O  0.84315991  0.71325167  0.71097444    -0.64100
H723        H  0.83990288  0.70165070  0.62683285     0.16600
C724        C  0.88072601  0.66254665  0.55554705     0.28800
C725        C  0.87508674  0.65245806  0.51410062    -0.25000
C726        C  0.86166222  0.66594338  0.48222401    -0.24300
C727        C  0.85401592  0.69012879  0.49261886     0.40300
C728        C  0.85983321  0.70030035  0.53426382    -0.26800
O729        O  0.89310043  0.64843889  0.58629269    -0.58700
H730        H  0.88121852  0.63387679  0.50706215     0.15900
O731        O  0.84067186  0.70388357  0.46271667    -0.60100
H732        H  0.85374563  0.71879624  0.54212070     0.14400
H733        H  0.84168447  0.73142794  0.71119504     0.46200
H734        H  0.88004777  0.64060706  0.60465570     0.41600
H735        H  0.82313820  0.70025184  0.46952718     0.45100
H736        H  0.93016557  0.67926294  0.60783671     0.36500
C737        C  0.84021284  0.53007658  0.80395543    -0.27700
C738        C  0.86058958  0.54250363  0.78612041     0.01900
C739        C  0.87442813  0.53159394  0.75174729     0.30000
C740        C  0.86767278  0.50864337  0.73504738    -0.19500
C741        C  0.84682487  0.49618304  0.75172636    -0.28900
C742        C  0.83319783  0.50710172  0.78698027     0.44000
C743        C  0.86677041  0.56744372  0.80163602     0.05200
O744        O  0.89469804  0.54326090  0.73435164    -0.57400
H745        H  0.87869051  0.50082266  0.70830891     0.18100
O746        O  0.81299092  0.49565187  0.80502632    -0.64100
H747        H  0.82943316  0.53845050  0.83047579     0.16600
C748        C  0.85955503  0.58803115  0.77648657     0.28800
C749        C  0.86698581  0.61151093  0.78942720    -0.25000
C750        C  0.88159019  0.61502172  0.82774527    -0.24300
C751        C  0.88835350  0.59424349  0.85348100     0.40300
C752        C  0.88102153  0.57066992  0.84014756    -0.26800
O753        O  0.84559616  0.58531430  0.73865052    -0.58700
H754        H  0.86133991  0.62702280  0.76909686     0.15900
O755        O  0.90202782  0.59666897  0.89169917    -0.60100
H756        H  0.88664354  0.55483818  0.85968065     0.14400
H757        H  0.79861956  0.50258520  0.78880339     0.46200
H758        H  0.82824729  0.58504651  0.74928887     0.41600
H759        H  0.88975050  0.59821507  0.91620103     0.45100
H760        H  0.88846223  0.55262182  0.70823378     0.36500
C761        C  0.02456344  0.35167461  0.28501074    -0.27700
C762        C  0.03101416  0.37658980  0.28275968     0.01900
C763        C  0.01353175  0.39376796  0.26739183     0.30000
C764        C  0.99045145  0.38573187  0.25238722    -0.19500
C765        C  0.98419895  0.36060922  0.25298073    -0.28900
C766        C  0.00133564  0.34364769  0.27085050     0.44000
C767        C  0.05662965  0.38399251  0.29347006     0.05200
O768        O  0.01948912  0.41818103  0.26390193    -0.57400
H769        H  0.97767247  0.39923071  0.23908668     0.18100
O770        O  0.99626376  0.31899406  0.27216621    -0.64100
H771        H  0.03785414  0.33827864  0.29696994     0.16600
C772        C  0.06182265  0.40030822  0.32862011     0.28800
C773        C  0.08639699  0.40599970  0.33893552    -0.25000
C774        C  0.10609117  0.39551580  0.31469590    -0.24300
C775        C  0.10073919  0.37964028  0.27879950     0.40300
C776        C  0.07620521  0.37404875  0.26847092    -0.26800
O777        O  0.04309299  0.40955308  0.35469617    -0.58700
H778        H  0.09005158  0.41802368  0.36696564     0.15900
O779        O  0.11931297  0.37000473  0.25284361    -0.60100
H780        H  0.07242211  0.36176330  0.24086257     0.14400
H781        H  0.98964745  0.31598137  0.30261721     0.46200
H782        H  0.04249622  0.42740596  0.34807756     0.41600
H783        H  0.12126800  0.35274959  0.26298993     0.45100
H784        H  0.00951134  0.42661361  0.28717480     0.36500
C785        C  0.82922442  0.36239084  0.90335980    -0.27700
C786        C  0.83096448  0.38173768  0.93386790     0.01900
C787        C  0.82670561  0.40603938  0.91979833     0.30000
C788        C  0.82189512  0.41084048  0.87471077    -0.19500
C789        C  0.82169805  0.39153966  0.84361871    -0.28900
C790        C  0.82465630  0.36712000  0.85845152     0.44000
C791        C  0.84157847  0.37655198  0.97780625     0.05200
O792        O  0.82940342  0.42526037  0.94896778    -0.57400
H793        H  0.81988046  0.42970931  0.86362467     0.18100
O794        O  0.82425211  0.34782484  0.82898582    -0.64100
H795        H  0.83271990  0.34366241  0.91407895     0.16600
C796        C  0.82730339  0.37698150  0.01697709     0.28800
C797        C  0.83840731  0.37159492  0.05803146    -0.25000
C798        C  0.86367261  0.36555568  0.06016892    -0.24300
C799        C  0.87762658  0.36453080  0.02029405     0.40300
C800        C  0.86656459  0.37019988  0.97969767    -0.26800
O801        O  0.80263101  0.38262474  0.01537613    -0.58700
H802        H  0.82731058  0.37238729  0.08817952     0.15900
O803        O  0.90206125  0.35783746  0.02041609    -0.60100
H804        H  0.87752891  0.36951299  0.94934519     0.14400
H805        H  0.80652790  0.34399277  0.82484561     0.46200
H806        H  0.79410645  0.36655312  0.01404697     0.41600
H807        H  0.90210593  0.33977521  0.01601573     0.45100
H808        H  0.81282652  0.42776404  0.96235440     0.36500
C809        C  0.85202029  0.33937967  0.50833922    -0.27700
C810        C  0.86820673  0.35078482  0.47825597     0.01900
C811        C  0.87898329  0.37335619  0.48974335     0.30000
C812        C  0.87338247  0.38432504  0.53073605    -0.19500
C813        C  0.85721003  0.37301109  0.56123836    -0.28900
C814        C  0.84655264  0.35021576  0.54966159     0.44000
C815        C  0.87243242  0.34009351  0.43353524     0.05200
O816        O  0.89403149  0.38543439  0.46007860    -0.57400
H817        H  0.88181477  0.40181217  0.53854090     0.18100
O818        O  0.83066587  0.33839650  0.57815926    -0.64100
H819        H  0.84347842  0.32207830  0.49958350     0.16600
C820        C  0.89632131  0.33385407  0.41883799     0.28800
C821        C  0.90040649  0.32776827  0.37401809    -0.25000
C822        C  0.88079730  0.32757741  0.34333746    -0.24300
C823        C  0.85652144  0.33169462  0.35928071     0.40300
C824        C  0.85256398  0.33804509  0.40399822    -0.26800
O825        O  0.91593229  0.33460794  0.44765269    -0.58700
H826        H  0.91915652  0.32434060  0.36293614     0.15900
O827        O  0.83660614  0.33061234  0.33117456    -0.60100
H828        H  0.83402359  0.34245512  0.41517043     0.14400
H829        H  0.81398994  0.34443373  0.56992841     0.46200
H830        H  0.91634108  0.31818474  0.46203970     0.41600
H831        H  0.83038839  0.31355755  0.33391895     0.45100
H832        H  0.91099202  0.38331329  0.47188783     0.36500
C833        C  0.88166757  0.51216887  0.28210469    -0.27700
C834        C  0.86334135  0.49630497  0.26640547     0.01900
C835        C  0.83885751  0.50499126  0.26307225     0.30000
C836        C  0.83292897  0.52888187  0.27685303    -0.19500
C837        C  0.85120123  0.54460990  0.29365035    -0.28900
C838        C  0.87591940  0.53617496  0.29489983     0.44000
C839        C  0.86998532  0.47073790  0.25395776     0.05200
O840        O  0.82050254  0.49019451  0.24692697    -0.57400
H841        H  0.81384446  0.53483815  0.27546706     0.18100
O842        O  0.89464407  0.55097998  0.30956867    -0.64100
H843        H  0.90054908  0.50580499  0.28525625     0.16600
C844        C  0.88986534  0.46584122  0.22486617     0.28800
C845        C  0.89548188  0.44163963  0.21282272    -0.25000
C846        C  0.88146583  0.42185120  0.22910234    -0.24300
C847        C  0.86182407  0.42679912  0.25907505     0.40300
C848        C  0.85643831  0.45102571  0.27150677    -0.26800
O849        O  0.90302589  0.48469912  0.20597903    -0.58700
H850        H  0.91054907  0.43851566  0.18961501     0.15900
O851        O  0.84780122  0.40820105  0.27668641    -0.60100
H852        H  0.84147516  0.45442825  0.29482840     0.14400
H853        H  0.89980770  0.56057138  0.28294836     0.46200
H854        H  0.91953931  0.48399791  0.22015381     0.41600
H855        H  0.83272507  0.40770165  0.25798582     0.45100
H856        H  0.82204303  0.49110290  0.21392903     0.36500
C857        C  0.73148574  0.98220466  0.02153613    -0.27700
C858        C  0.74538566  0.00235349  0.00693156     0.01900
C859        C  0.75514068  0.00252930  0.96335483     0.30000
C860        C  0.74893924  0.98375139  0.93351996    -0.19500
C861        C  0.73253357  0.96519545  0.94663084    -0.28900
C862        C  0.72493004  0.96369510  0.99161852     0.44000
C863        C  0.74383010  0.02520857  0.03302092     0.05200
O864        O  0.76934244  0.02182868  0.94900425    -0.57400
H865        H  0.75503594  0.98503202  0.89907069     0.18100
O866        O  0.70941123  0.94537026  0.00570375    -0.64100
H867        H  0.72378281  0.98200997  0.05501375     0.16600
C868        C  0.72692215  0.04341425  0.01951837     0.28800
C869        C  0.72088075  0.06255777  0.04842336    -0.25000
C870        C  0.73151612  0.06392731  0.09093419    -0.24300
C871        C  0.74973539  0.04668077  0.10340980     0.40300
C872        C  0.75567486  0.02725668  0.07446365    -0.26800
O873        O  0.71418685  0.04109180  0.98017471    -0.58700
H874        H  0.70666483  0.07555476  0.03864205     0.15900
O875        O  0.76033815  0.04751447  0.14496099    -0.60100
H876        H  0.76846241  0.01310604  0.08527877     0.14400
H877        H  0.72005046  0.93060426  0.00899015     0.46200
H878        H  0.72138683  0.05354237  0.95979384     0.41600
H879        H  0.74897119  0.03830489  0.16483647     0.45100
H880        H  0.75860499  0.03158648  0.92882652     0.36500
C881        C  0.66307555  0.94902904  0.26248254    -0.27700
C882        C  0.65409244  0.96933788  0.28665379     0.01900
C883        C  0.63805858  0.96510666  0.32303043     0.30000
C884        C  0.63136135  0.94108551  0.33467054    -0.19500
C885        C  0.64078011  0.92067757  0.31121686    -0.28900
C886        C  0.65684771  0.92492840  0.27474043     0.44000
C887        C  0.66141914  0.99477924  0.27354319     0.05200
O888        O  0.62918816  0.98431062  0.34811353    -0.57400
H889        H  0.61921110  0.93846061  0.36307994     0.18100
O890        O  0.66616305  0.90575244  0.25010471    -0.64100
H891        H  0.67499423  0.95184025  0.23381217     0.16600
C892        C  0.68636899  0.00102741  0.26633662     0.28800
C893        C  0.69271296  0.02481646  0.25239157    -0.25000
C894        C  0.67450407  0.04291061  0.24544453    -0.24300
C895        C  0.64959885  0.03683429  0.25418420     0.40300
C896        C  0.64328318  0.01300100  0.26767152    -0.26800
O897        O  0.70474196  0.98394553  0.27239567    -0.58700
H898        H  0.71193748  0.02886577  0.24577593     0.15900
O899        O  0.63111775  0.05388063  0.24882658    -0.60100
H900        H  0.62398926  0.00863454  0.27272045     0.14400
H901        H  0.68297880  0.90281598  0.26204314     0.46200
H902        H  0.70898080  0.98490516  0.30456575     0.41600
H903        H  0.62942288  0.06199202  0.27835481     0.45100
H904        H  0.64102256  0.98606063  0.37311393     0.36500
C905        C  0.77823463  0.21703275  0.16193837    -0.27700
C906        C  0.80272059  0.20882382  0.16511040     0.01900
C907        C  0.80725387  0.18336392  0.16957578     0.30000
C908        C  0.78746163  0.16681802  0.17293703    -0.19500
C909        C  0.76291188  0.17518447  0.17057747    -0.28900
C910        C  0.75855458  0.20061510  0.16394388     0.44000
C911        C  0.82296186  0.22729771  0.16670910     0.05200
O912        O  0.83094739  0.17446771  0.17105789    -0.57400
H913        H  0.79133884  0.14743351  0.17750581     0.18100
O914        O  0.73504403  0.20993633  0.16085001    -0.64100
H915        H  0.77415469  0.23648484  0.15947450     0.16600
C916        C  0.82364027  0.24722602  0.13650135     0.28800
C917        C  0.84066873  0.26621670  0.14256807    -0.25000
C918        C  0.85727934  0.26586248  0.17850904    -0.24300
C919        C  0.85746491  0.24541059  0.20741740     0.40300
C920        C  0.84037893  0.22640008  0.20145801    -0.26800
O921        O  0.80778767  0.24821643  0.10080963    -0.58700
H922        H  0.84040869  0.28167246  0.11968345     0.15900
O923        O  0.87325358  0.24446944  0.24313186    -0.60100
H924        H  0.83994668  0.21153165  0.22554205     0.14400
H925        H  0.73023178  0.21420672  0.19190461     0.46200
H926        H  0.79666413  0.26238964  0.10668738     0.41600
H927        H  0.86386145  0.25162945  0.26851144     0.45100
H928        H  0.83611592  0.17288665  0.13935941     0.36500
C929        C  0.63221549  0.20425578  0.91146932    -0.27700
C930        C  0.65519212  0.19423303  0.92292318     0.01900
C931        C  0.67406455  0.19302989  0.89070012     0.30000
C932        C  0.66924329  0.20000918  0.84677873    -0.19500
C933        C  0.64561778  0.20822995  0.83414174    -0.28900
C934        C  0.62728187  0.21123339  0.86742242     0.44000
C935        C  0.65853547  0.18262025  0.96694390     0.05200
O936        O  0.69692180  0.18384268  0.90136815    -0.57400
H937        H  0.68381992  0.19787613  0.82220609     0.18100
O938        O  0.60413717  0.21978929  0.85709970    -0.64100
H939        H  0.61755454  0.20528312  0.93610298     0.16600
C940        C  0.65477577  0.19577297  0.00673410     0.28800
C941        C  0.65860535  0.18416801  0.04782204    -0.25000
C942        C  0.66571682  0.15927889  0.04989224    -0.24300
C943        C  0.66869187  0.14597302  0.00973543     0.40300
C944        C  0.66508315  0.15769688  0.96880593    -0.26800
O945        O  0.64826959  0.22016215  0.00571570    -0.58700
H946        H  0.65597316  0.19475141  0.07812602     0.15900
O947        O  0.67516739  0.12156790  0.00989150    -0.60100
H948        H  0.66740839  0.14724755  0.93824250     0.14400
H949        H  0.59408846  0.20488304  0.85180259     0.46200
H950        H  0.63045780  0.22059862  0.01343383     0.41600
H951        H  0.69333156  0.12129802  0.00571508     0.45100
H952        H  0.70680671  0.19836452  0.91000917     0.36500
C953        C  0.65759056  0.15732308  0.47315617    -0.27700
C954        C  0.68206849  0.16419352  0.46551667     0.01900
C955        C  0.69534735  0.17618882  0.49917038     0.30000
C956        C  0.68421131  0.18057419  0.54066363    -0.19500
C957        C  0.65968984  0.17330502  0.54896279    -0.28900
C958        C  0.64629192  0.16185105  0.51427050     0.44000
C959        C  0.69307790  0.15893973  0.42163755     0.05200
O960        O  0.71915262  0.18366561  0.49181287    -0.57400
H961        H  0.69484920  0.18964954  0.56636413     0.18100
O962        O  0.62211210  0.15510402  0.51982571    -0.64100
H963        H  0.64715159  0.14843877  0.44692698     0.16600
C964        C  0.69758263  0.13456386  0.40843810     0.28800
C965        C  0.70356584  0.12939156  0.36400626    -0.25000
C966        C  0.70487054  0.14834957  0.33210114    -0.24300
C967        C  0.70184287  0.17298077  0.34632180     0.40300
C968        C  0.69614183  0.17807276  0.39095438    -0.26800
O969        O  0.69479887  0.11557085  0.43819344    -0.58700
H970        H  0.70584965  0.11036483  0.35413560     0.15900
O971        O  0.70383044  0.19219445  0.31680820    -0.60100
H972        H  0.69276479  0.19691078  0.40108151     0.14400
H973        H  0.62269616  0.13757764  0.52891249     0.46200
H974        H  0.71017192  0.11543124  0.45610055     0.41600
H975        H  0.68661053  0.19666838  0.30894132     0.45100
H976        H  0.72951931  0.16897540  0.49784026     0.36500
C977        C  0.58045361  0.16475136  0.26926625    -0.27700
C978        C  0.56068492  0.15932736  0.24086057     0.01900
C979        C  0.56541758  0.14782383  0.19963516     0.30000
C980        C  0.58961781  0.14125226  0.18788633    -0.19500
C981        C  0.60949408  0.14646511  0.21646634    -0.28900
C982        C  0.60471153  0.15876693  0.25715479     0.44000
C983        C  0.53519885  0.16536770  0.25522804     0.05200
O984        O  0.54651022  0.14289213  0.17067693    -0.57400
H985        H  0.59286468  0.13236871  0.15600124     0.18100
O986        O  0.62349055  0.16442414  0.28597690    -0.64100
H987        H  0.57705249  0.17382590  0.30092894     0.16600
C988        C  0.52493365  0.15407695  0.29321183     0.28800
C989        C  0.50132312  0.16080744  0.30794172    -0.25000
C990        C  0.48769255  0.17919208  0.28576849    -0.24300
C991        C  0.49780894  0.19004906  0.24697834     0.40300
C992        C  0.52136083  0.18305305  0.23194553    -0.26800
O993        O  0.53777493  0.13620107  0.31581695    -0.58700
H994        H  0.49402339  0.15213188  0.33776286     0.15900
O995        O  0.48500460  0.20766897  0.22372731    -0.60100
H996        H  0.52907903  0.19183040  0.20257304     0.14400
H997        H  0.62752913  0.18185568  0.27967531     0.46200
H998        H  0.54550647  0.14474845  0.34143464     0.41600
H999        H  0.47337030  0.19843860  0.20456690     0.45100
H1000       H  0.54061911  0.12628896  0.17909881     0.36500
C1001       C  0.35618869  0.09136450  0.27338159    -0.27700
C1002       C  0.36867273  0.07148015  0.29306554     0.01900
C1003       C  0.38743347  0.07619127  0.32423224     0.30000
C1004       C  0.39354941  0.10043015  0.33513790    -0.19500
C1005       C  0.38102176  0.12051192  0.31574316    -0.28900
C1006       C  0.36207640  0.11565945  0.28456261     0.44000
C1007       C  0.36219230  0.04593582  0.28037709     0.05200
O1008       O  0.39972640  0.05719257  0.34467472    -0.57400
H1009       H  0.40798323  0.10343102  0.35946793     0.18100
O1010       O  0.34953048  0.13443262  0.26394365    -0.64100
H1011       H  0.34188893  0.08803628  0.24890625     0.16600
C1012       C  0.33779871  0.03739273  0.28424861     0.28800
C1013       C  0.33177301  0.01374534  0.26968354    -0.25000
C1014       C  0.34976848  0.99817604  0.25074171    -0.24300
C1015       C  0.37441386  0.00648918  0.24832891     0.40300
C1016       C  0.38042311  0.03012304  0.26325107    -0.26800
O1017       O  0.31958919  0.05217386  0.30160088    -0.58700
H1018       H  0.31271448  0.00792935  0.27192077     0.15900
O1019       O  0.39282024  0.99167579  0.23170775    -0.60100
H1020       H  0.39931609  0.03637030  0.26028899     0.14400
H1021       H  0.33415372  0.13658174  0.28160307     0.46200
H1022       H  0.32061328  0.04993258  0.33444012     0.41600
H1023       H  0.39560490  0.99741858  0.20062810     0.45100
H1024       H  0.39002240  0.05355960  0.37203311     0.36500
C1025       C  0.38945093  0.83569001  0.92375588    -0.27700
C1026       C  0.36463568  0.84002705  0.93454472     0.01900
C1027       C  0.34640645  0.83658606  0.90196084     0.30000
C1028       C  0.35322389  0.83070949  0.85822012    -0.19500
C1029       C  0.37822988  0.82807634  0.84623925    -0.28900
C1030       C  0.39638054  0.82979846  0.87992310     0.44000
C1031       C  0.35831825  0.85137022  0.97777480     0.05200
O1032       O  0.32194778  0.84011589  0.91210826    -0.57400
H1033       H  0.33888783  0.82908731  0.83324797     0.18100
O1034       O  0.42098788  0.82715291  0.87006688    -0.64100
H1035       H  0.40362053  0.83834209  0.94875699     0.16600
C1036       C  0.36173211  0.83876176  0.01825649     0.28800
C1037       C  0.35691570  0.85071892  0.05873751    -0.25000
C1038       C  0.34942217  0.87550872  0.05939840    -0.24300
C1039       C  0.34581627  0.88800291  0.01865894     0.40300
C1040       C  0.35000757  0.87580657  0.97826005    -0.26800
O1041       O  0.36949795  0.81473786  0.01849095    -0.58700
H1042       H  0.35979966  0.84079375  0.08971881     0.15900
O1043       O  0.33768594  0.91191582  0.01792793    -0.60100
H1044       H  0.34736518  0.88565325  0.94711518     0.14400
H1045       H  0.42694806  0.84401283  0.86369271     0.46200
H1046       H  0.38757164  0.81544643  0.02339635     0.41600
H1047       H  0.35267735  0.92194066  0.01281525     0.45100
H1048       H  0.31632054  0.82421247  0.92464457     0.36500
C1049       C  0.33438792  0.90809547  0.41899177    -0.27700
C1050       C  0.33702692  0.88344867  0.43183889     0.01900
C1051       C  0.33093777  0.86467068  0.40182847     0.30000
C1052       C  0.32314429  0.87061814  0.35875603    -0.19500
C1053       C  0.32149445  0.89526408  0.34487712    -0.28900
C1054       C  0.32640888  0.91412624  0.37587415     0.44000
C1055       C  0.34731850  0.87733998  0.47585714     0.05200
O1056       O  0.33343820  0.84045212  0.41383472    -0.57400
H1057       H  0.31930627  0.85584839  0.33555609     0.18100
O1058       O  0.32533546  0.93837763  0.36345917    -0.64100
H1059       H  0.33912717  0.92263797  0.44210486     0.16600
C1060       C  0.37276854  0.87913356  0.48349311     0.28800
C1061       C  0.38236740  0.87282573  0.52522481    -0.25000
C1062       C  0.36681645  0.86483426  0.56014404    -0.24300
C1063       C  0.34121995  0.86283091  0.55192406     0.40300
C1064       C  0.33173224  0.86893560  0.50988001    -0.26800
O1065       O  0.38845812  0.88636141  0.44992377    -0.58700
H1066       H  0.40209117  0.87440503  0.53018092     0.15900
O1067       O  0.32530803  0.85466270  0.58435699    -0.60100
H1068       H  0.31210729  0.86723432  0.50383756     0.14400
H1069       H  0.30843930  0.94389080  0.37157030     0.46200
H1070       H  0.39103923  0.90418809  0.45476622     0.41600
H1071       H  0.31797796  0.86974267  0.59755027     0.45100
H1072       H  0.35035355  0.83572096  0.40431543     0.36500
C1073       C  0.44813459  0.86677283  0.21562857    -0.27700
C1074       C  0.46080827  0.88119581  0.24699493     0.01900
C1075       C  0.44912484  0.90262864  0.26363947     0.30000
C1076       C  0.42525404  0.90904435  0.24933213    -0.19500
C1077       C  0.41248500  0.89409548  0.21913101    -0.28900
C1078       C  0.42420877  0.87300697  0.20191513     0.44000
C1079       C  0.48598535  0.87350435  0.26217122     0.05200
O1080       O  0.46062093  0.91715838  0.29460097    -0.57400
H1081       H  0.41644332  0.92537162  0.26275341     0.18100
O1082       O  0.41245331  0.85843184  0.17132205    -0.64100
H1083       H  0.45686846  0.85059561  0.20150410     0.16600
C1084       C  0.49080078  0.84913734  0.27605821     0.28800
C1085       C  0.51460237  0.84208786  0.28940862    -0.25000
C1086       C  0.53396520  0.85916138  0.29072428    -0.24300
C1087       C  0.52916257  0.88356963  0.27698378     0.40300
C1088       C  0.50547704  0.89046812  0.26257672    -0.26800
O1089       O  0.47217489  0.83218238  0.27804877    -0.58700
H1090       H  0.51763879  0.82336873  0.30056716     0.15900
O1091       O  0.54743279  0.90092916  0.27772209    -0.60100
H1092       H  0.50238202  0.90918829  0.25152040     0.14400
H1093       H  0.41587592  0.86610523  0.14187328     0.46200
H1094       H  0.46542401  0.83348455  0.30881013     0.41600
H1095       H  0.55474562  0.90066932  0.24730173     0.45100
H1096       H  0.45557624  0.91044577  0.32405654     0.36500
C1097       C  0.02758257  0.76119040  0.07515278    -0.27700
C1098       C  0.02670016  0.74941033  0.03348090     0.01900
C1099       C  0.04612667  0.73358307  0.02081189     0.30000
C1100       C  0.06499570  0.72828678  0.05089140    -0.19500
C1101       C  0.06470946  0.73820895  0.09419289    -0.28900
C1102       C  0.04660126  0.75586893  0.10538657     0.44000
C1103       C  0.00405369  0.75021135  0.00608159     0.05200
O1104       O  0.04575359  0.72153675  0.98052878    -0.57400
H1105       H  0.07891451  0.71488383  0.04142353     0.18100
O1106       O  0.04579260  0.76605565  0.14725441    -0.64100
H1107       H  0.01274318  0.77341094  0.08521465     0.16600
C1108       C  0.98206585  0.73982434  0.02268383     0.28800
C1109       C  0.96329743  0.73326103  0.99308061    -0.25000
C1110       C  0.96607977  0.73726498  0.94708325    -0.24300
C1111       C  0.98686003  0.75001256  0.93110833     0.40300
C1112       C  0.00575377  0.75631576  0.96060972    -0.26800
O1113       O  0.97963760  0.73408345  0.06714413    -0.58700
H1114       H  0.94724073  0.72364867  0.00570170     0.15900
O1115       O  0.99025970  0.75365474  0.88614221    -0.60100
H1116       H  0.02260660  0.76419975  0.94743440     0.14400
H1117       H  0.05622342  0.78094440  0.14522812     0.46200
H1118       H  0.98504616  0.71670543  0.06974211     0.41600
H1119       H  0.98398449  0.77049204  0.88029737     0.45100
H1120       H  0.03593365  0.70646555  0.98587825     0.36500
C1121       C  0.99849072  0.68875869  0.27900258    -0.27700
C1122       C  0.99216880  0.66376510  0.27895781     0.01900
C1123       C  0.00988766  0.64631053  0.26536271     0.30000
C1124       C  0.03325480  0.65403074  0.25092949    -0.19500
C1125       C  0.03953624  0.67911165  0.25019654    -0.28900
C1126       C  0.02192937  0.69649214  0.26508712     0.44000
C1127       C  0.96660572  0.65642050  0.29088103     0.05200
O1128       O  0.00395507  0.62185112  0.26316992    -0.57400
H1129       H  0.04633245  0.64031058  0.23935165     0.18100
O1130       O  0.02676345  0.72119290  0.26333189    -0.64100
H1131       H  0.98499152  0.70241446  0.28918626     0.16600
C1132       C  0.96178165  0.64005083  0.32629244     0.28800
C1133       C  0.93739096  0.63420563  0.33768525    -0.25000
C1134       C  0.91734693  0.64481260  0.31474321    -0.24300
C1135       C  0.92230416  0.66083921  0.27860646     0.40300
C1136       C  0.94671440  0.66646548  0.26704504    -0.26800
O1137       O  0.98072950  0.63023388  0.35089611    -0.58700
H1138       H  0.93419628  0.62197210  0.36567924     0.15900
O1139       O  0.90349514  0.67077214  0.25375377    -0.60100
H1140       H  0.95014246  0.67885407  0.23934655     0.14400
H1141       H  0.03229481  0.72558596  0.29385413     0.46200
H1142       H  0.98412933  0.64253607  0.37450417     0.41600
H1143       H  0.90148617  0.68783276  0.26487233     0.45100
H1144       H  0.01346068  0.61384141  0.28747870     0.36500
C1145       C  0.21010768  0.79229857  0.18723219    -0.27700
C1146       C  0.19891919  0.81548591  0.18468957     0.01900
C1147       C  0.17301689  0.81727465  0.18511667     0.30000
C1148       C  0.15867530  0.79589986  0.18842899    -0.19500
C1149       C  0.16989861  0.77258857  0.19152360    -0.28900
C1150       C  0.19599214  0.77102389  0.19050459     0.44000
C1151       C  0.21506140  0.83732460  0.18252597     0.05200
O1152       O  0.16163446  0.83971501  0.18086721    -0.57400
H1153       H  0.13875316  0.79761584  0.18866515     0.18100
O1154       O  0.20807811  0.74891917  0.19459586    -0.64100
H1155       H  0.23005699  0.79069326  0.18742605     0.16600
C1156       C  0.21540361  0.85472467  0.21737078     0.28800
C1157       C  0.23425382  0.87229193  0.21908975    -0.25000
C1158       C  0.25327111  0.87220603  0.18709364    -0.24300
C1159       C  0.25203157  0.85574193  0.15087248     0.40300
C1160       C  0.23293947  0.83861631  0.14863564    -0.26800
O1161       O  0.19854854  0.85356269  0.25159020    -0.58700
H1162       H  0.23507385  0.88468428  0.24736595     0.15900
O1163       O  0.26973348  0.85595666  0.11796780    -0.60100
H1164       H  0.23282757  0.82540233  0.12155397     0.14400
H1165       H  0.21202651  0.74381334  0.16355497     0.46200
H1166       H  0.20591188  0.84220431  0.27387251     0.41600
H1167       H  0.28093786  0.84202970  0.12503268     0.45100
H1168       H  0.15439921  0.84327815  0.21066317     0.36500
C1169       C  0.19984061  0.63421575  0.92112483    -0.27700
C1170       C  0.19638203  0.65874938  0.93401424     0.01900
C1171       C  0.19987331  0.67769296  0.90282556     0.30000
C1172       C  0.20549553  0.67190768  0.85853443    -0.19500
C1173       C  0.20762112  0.64728740  0.84480195    -0.28900
C1174       C  0.20557179  0.62836703  0.87678481     0.44000
C1175       C  0.18531440  0.66421177  0.97772365     0.05200
O1176       O  0.19635924  0.70180426  0.91473828    -0.57400
H1177       H  0.20709309  0.68668496  0.83439688     0.18100
O1178       O  0.20665088  0.60413963  0.86427837    -0.64100
H1179       H  0.19679084  0.61953969  0.94500564     0.16600
C1180       C  0.16049391  0.65834392  0.98546882     0.28800
C1181       C  0.14953075  0.66421882  0.02619622    -0.25000
C1182       C  0.16307060  0.67580957  0.06013818    -0.24300
C1183       C  0.18802630  0.68198306  0.05197249     0.40300
C1184       C  0.19889857  0.67629559  0.01072073    -0.26800
O1185       O  0.14657206  0.64756996  0.95271349    -0.58700
H1186       H  0.13035173  0.65937154  0.03119502     0.15900
O1187       O  0.20181365  0.69395553  0.08349376    -0.60100
H1188       H  0.21795243  0.68123215  0.00448959     0.14400
H1189       H  0.22335480  0.59843887  0.87305981     0.46200
H1190       H  0.14721001  0.62970007  0.95919259     0.41600
H1191       H  0.21129818  0.68086034  0.09896786     0.45100
H1192       H  0.17833977  0.70472271  0.91208065     0.36500
C1193       C  0.13039250  0.69846262  0.42136762    -0.27700
C1194       C  0.15491970  0.69417487  0.43416085     0.01900
C1195       C  0.17403920  0.69756045  0.40299750     0.30000
C1196       C  0.16831028  0.70368516  0.35888246    -0.19500
C1197       C  0.14363418  0.70668698  0.34530074    -0.28900
C1198       C  0.12464878  0.70487074  0.37736872     0.44000
C1199       C  0.15986439  0.68332051  0.47835426     0.05200
O1200       O  0.19811613  0.69283724  0.41435478    -0.57400
H1201       H  0.18322026  0.70515328  0.33481703     0.18100
O1202       O  0.10034615  0.70721730  0.36539379    -0.64100
H1203       H  0.11555490  0.69583452  0.44524505     0.16600
C1204       C  0.17494908  0.69504108  0.50986070     0.28800
C1205       C  0.17895867  0.68409271  0.55152454    -0.25000
C1206       C  0.16812699  0.66138282  0.56227015    -0.24300
C1207       C  0.15310296  0.64965873  0.53029242     0.40300
C1208       C  0.14903849  0.66072144  0.48891075    -0.26800
O1209       O  0.18570628  0.71720934  0.50034987    -0.58700
H1210       H  0.19067033  0.69338759  0.57536852     0.15900
O1211       O  0.14161067  0.62780294  0.53950185    -0.60100
H1212       H  0.13741064  0.65153859  0.46475687     0.14400
H1213       H  0.09587846  0.72445811  0.37259334     0.46200
H1214       H  0.17423644  0.72976158  0.51263706     0.41600
H1215       H  0.15241352  0.61495821  0.52625045     0.45100
H1216       H  0.20611848  0.70917041  0.41604535     0.36500
C1217       C  0.16614011  0.58469632  0.26087296    -0.27700
C1218       C  0.15596395  0.56581237  0.23514072     0.01900
C1219       C  0.13931454  0.57144667  0.20076729     0.30000
C1220       C  0.13284326  0.59585562  0.19257400    -0.19500
C1221       C  0.14312261  0.61492456  0.21800191    -0.28900
C1222       C  0.15984977  0.60916165  0.25256789     0.44000
C1223       C  0.16184248  0.54018600  0.24616558     0.05200
O1224       O  0.12946411  0.55321520  0.17480532    -0.57400
H1225       H  0.12023836  0.59988990  0.16546869     0.18100
O1226       O  0.17011692  0.62720971  0.27845707    -0.64100
H1227       H  0.17873311  0.58039640  0.28787734     0.16600
C1228       C  0.18613260  0.53126673  0.24302309     0.28800
C1229       C  0.19169140  0.50764573  0.25838328    -0.25000
C1230       C  0.17324109  0.49290164  0.27761882    -0.24300
C1231       C  0.14861003  0.50143324  0.27806834     0.40300
C1232       C  0.14311295  0.52499246  0.26254959    -0.26800
O1233       O  0.20448238  0.54555609  0.22511828    -0.58700
H1234       H  0.21068672  0.50137580  0.25722870     0.15900
O1235       O  0.12988085  0.48722258  0.29478371    -0.60100
H1236       H  0.12430066  0.53174980  0.26468682     0.14400
H1237       H  0.15825929  0.62984046  0.30333032     0.46200
H1238       H  0.21300680  0.55292471  0.25110949     0.41600
H1239       H  0.12395043  0.47749357  0.26897532     0.45100
H1240       H  0.14199514  0.55000029  0.15126842     0.36500
C1241       C  0.38230204  0.01422586  0.76853330    -0.27700
C1242       C  0.36365820  0.99682856  0.76174389     0.01900
C1243       C  0.33882763  0.00405454  0.76681983     0.30000
C1244       C  0.33296437  0.02816437  0.77951105    -0.19500
C1245       C  0.35161350  0.04544263  0.78783628    -0.28900
C1246       C  0.37650429  0.03828026  0.78175656     0.44000
C1247       C  0.37028323  0.97115360  0.74974474     0.05200
O1248       O  0.32013420  0.98757724  0.76004956    -0.57400
H1249       H  0.31374855  0.03307893  0.78438072     0.18100
O1250       O  0.39531576  0.05468841  0.78820873    -0.64100
H1251       H  0.40149621  0.00897567  0.76461852     0.16600
C1252       C  0.38411949  0.96600911  0.71099083     0.28800
C1253       C  0.38990628  0.94165466  0.69985747    -0.25000
C1254       C  0.38207552  0.92200179  0.72690498    -0.24300
C1255       C  0.36858274  0.92722397  0.76621135     0.40300
C1256       C  0.36274347  0.95162097  0.77725402    -0.26800
O1257       O  0.39097048  0.98460037  0.68259921    -0.58700
H1258       H  0.40005036  0.93811981  0.66925295     0.15900
O1259       O  0.36110558  0.90868996  0.79418772    -0.60100
H1260       H  0.35237815  0.95533619  0.80754767     0.14400
H1261       H  0.40203394  0.05080237  0.81821426     0.46200
H1262       H  0.40873485  0.98734776  0.68856674     0.41600
H1263       H  0.37506139  0.90607874  0.81506112     0.45100
H1264       H  0.31734465  0.98757478  0.72730014     0.36500
C1265       C  0.27192605  0.01699042  0.08155136    -0.27700
C1266       C  0.27737548  0.01398767  0.03597807     0.01900
C1267       C  0.28689104  0.99129249  0.02095420     0.30000
C1268       C  0.29301702  0.97294350  0.05189420    -0.19500
C1269       C  0.28929787  0.97669443  0.09779957    -0.28900
C1270       C  0.27779855  0.99853055  0.11243372     0.44000
C1271       C  0.27908540  0.03595697  0.00689762     0.05200
O1272       O  0.29304886  0.98799825  0.97684968    -0.57400
H1273       H  0.30207580  0.95633514  0.04025180     0.18100
O1274       O  0.27445804  0.00300479  0.15717568    -0.64100
H1275       H  0.26492752  0.03445848  0.09362548     0.16600
C1276       C  0.26749022  0.03729184  0.96487324     0.28800
C1277       C  0.27474779  0.05531041  0.93392532    -0.25000
C1278       C  0.29360462  0.07194332  0.94458173    -0.24300
C1279       C  0.30323014  0.07206917  0.98825772     0.40300
C1280       C  0.29585237  0.05428381  0.01904020    -0.26800
O1281       O  0.25018453  0.02024936  0.95287193    -0.58700
H1282       H  0.26693158  0.05512483  0.90064002     0.15900
O1283       O  0.32057689  0.08901350  0.00063785    -0.60100
H1284       H  0.30471357  0.05373122  0.05146322     0.14400
H1285       H  0.28979595  0.01125216  0.16707337     0.46200
H1286       H  0.23423590  0.02704199  0.96366628     0.41600
H1287       H  0.33654119  0.08001164  0.00041252     0.45100
H1288       H  0.27976983  0.97759316  0.96439475     0.36500
C1289       C  0.37267782  0.16289812  0.05638722    -0.27700
C1290       C  0.37186861  0.18847006  0.06029820     0.01900
C1291       C  0.36624748  0.20301436  0.02297102     0.30000
C1292       C  0.36077152  0.19171866  0.98226677    -0.19500
C1293       C  0.36067280  0.16589257  0.97849570    -0.28900
C1294       C  0.36678701  0.15150950  0.01627373     0.44000
C1295       C  0.37473797  0.19912607  0.10487905     0.05200
O1296       O  0.36564682  0.22815253  0.02616397    -0.57400
H1297       H  0.35640772  0.20323094  0.95378488     0.18100
O1298       O  0.36710833  0.12631509  0.01460552    -0.64100
H1299       H  0.37720536  0.15162239  0.08514720     0.16600
C1300       C  0.35810698  0.19244261  0.13871588     0.28800
C1301       C  0.36268856  0.19918544  0.18260773    -0.25000
C1302       C  0.38406418  0.21229408  0.19378215    -0.24300
C1303       C  0.40004322  0.22028305  0.15930072     0.40300
C1304       C  0.39519619  0.21371675  0.11495592    -0.26800
O1305       O  0.33750613  0.17885341  0.12909993    -0.58700
H1306       H  0.34993584  0.19298902  0.20815281     0.15900
O1307       O  0.42044586  0.23421994  0.16849093    -0.60100
H1308       H  0.40797639  0.21903050  0.08878479     0.14400
H1309       H  0.35258109  0.12103387  0.03234647     0.46200
H1310       H  0.34135591  0.16191423  0.13930687     0.41600
H1311       H  0.43454689  0.22253706  0.16819119     0.45100
H1312       H  0.34870632  0.23222439  0.03646833     0.36500
C1313       C  0.32798575  0.18133006  0.63519858    -0.27700
C1314       C  0.33446134  0.16254709  0.60549874     0.01900
C1315       C  0.33371815  0.13793562  0.61958943     0.30000
C1316       C  0.32801173  0.13241680  0.66409035    -0.19500
C1317       C  0.32313956  0.15131189  0.69485655    -0.28900
C1318       C  0.32233935  0.17589958  0.67971698     0.44000
C1319       C  0.34519407  0.16905337  0.56200826     0.05200
O1320       O  0.34018267  0.11935174  0.59086051    -0.57400
H1321       H  0.32877922  0.11344406  0.67505630     0.18100
O1322       O  0.31621582  0.19472666  0.70821329    -0.64100
H1323       H  0.32836854  0.20032786  0.62429663     0.16600
C1324       C  0.33065736  0.17093039  0.52344901     0.28800
C1325       C  0.34173837  0.17675919  0.48249285    -0.25000
C1326       C  0.36735541  0.18080735  0.47957312    -0.24300
C1327       C  0.38167857  0.17949213  0.51892466     0.40300
C1328       C  0.37051226  0.17369378  0.55963858    -0.26800
O1329       O  0.30577200  0.16657333  0.52532610    -0.58700
H1330       H  0.33032550  0.17757240  0.45285949     0.15900
O1331       O  0.40651461  0.18426245  0.51826123    -0.60100
H1332       H  0.38170773  0.17263191  0.58955344     0.14400
H1333       H  0.33205878  0.20276155  0.71577546     0.46200
H1334       H  0.29823320  0.18244236  0.53443161     0.41600
H1335       H  0.41467630  0.16791094  0.51788519     0.45100
H1336       H  0.32434355  0.11203591  0.58119754     0.36500
C1337       C  0.44915051  0.17418427  0.78125919    -0.27700
C1338       C  0.46792673  0.15770214  0.79330325     0.01900
C1339       C  0.46182187  0.13616858  0.81682829     0.30000
C1340       C  0.43715334  0.13139854  0.82789683    -0.19500
C1341       C  0.41816006  0.14779665  0.81554804    -0.28900
C1342       C  0.42450029  0.16940482  0.79190431     0.44000
C1343       C  0.49369809  0.16326436  0.78030798     0.05200
O1344       O  0.47996979  0.12029660  0.83088259    -0.57400
H1345       H  0.43299601  0.11485607  0.84658369     0.18100
O1346       O  0.40692955  0.18635087  0.77981786    -0.64100
H1347       H  0.45362745  0.19082183  0.76306984     0.16600
C1348       C  0.50708386  0.14735020  0.75219246     0.28800
C1349       C  0.53055244  0.15401168  0.73700831    -0.25000
C1350       C  0.54100304  0.17682054  0.74854277    -0.24300
C1351       C  0.52769792  0.19247155  0.77771919     0.40300
C1352       C  0.50427551  0.18564367  0.79316105    -0.26800
O1353       O  0.49693900  0.12575261  0.73759867    -0.58700
H1354       H  0.54012069  0.14159045  0.71454267     0.15900
O1355       O  0.53682977  0.21493193  0.78995412    -0.60100
H1356       H  0.49407264  0.19812907  0.81460839     0.14400
H1357       H  0.40201255  0.18172802  0.74905826     0.46200
H1358       H  0.48712487  0.13026620  0.71086325     0.41600
H1359       H  0.54558453  0.21196496  0.81852788     0.45100
H1360       H  0.47778123  0.10514600  0.81294697     0.36500
C1361       C  0.94661619  0.37552617  0.76420127    -0.27700
C1362       C  0.96589637  0.38893935  0.74473683     0.01900
C1363       C  0.96022373  0.40845211  0.71554817     0.30000
C1364       C  0.93553001  0.41350770  0.70457633    -0.19500
C1365       C  0.91620648  0.39939977  0.72268509    -0.28900
C1366       C  0.92199864  0.38075529  0.75386493     0.44000
C1367       C  0.99173076  0.38163984  0.75452167     0.05200
O1368       O  0.97873112  0.42165067  0.69553422    -0.57400
H1369       H  0.93159300  0.42796407  0.68067852     0.18100
O1370       O  0.90378337  0.36730511  0.77420090    -0.64100
H1371       H  0.95072055  0.36077775  0.78743171     0.16600
C1372       C  0.00785658  0.39744920  0.77721213     0.28800
C1373       C  0.03114846  0.38895914  0.79057987    -0.25000
C1374       C  0.03884711  0.36461121  0.78186418    -0.24300
C1375       C  0.02309268  0.34931975  0.75673114     0.40300
C1376       C  0.99971648  0.35779156  0.74384316    -0.26800
O1377       O  0.00067073  0.42089353  0.78814034    -0.58700
H1378       H  0.04282391  0.40130828  0.80933373     0.15900
O1379       O  0.02978060  0.32569854  0.74615414    -0.60100
H1380       H  0.98751739  0.34548803  0.72607828     0.14400
H1381       H  0.89854587  0.37723775  0.80037277     0.46200
H1382       H  0.99177316  0.41932336  0.81701015     0.41600
H1383       H  0.03833213  0.32696007  0.71688842     0.45100
H1384       H  0.97839994  0.43796606  0.71027451     0.36500
C1385       C  0.01868626  0.28087914  0.95424456    -0.27700
C1386       C  0.01958699  0.28971501  0.99831675     0.01900
C1387       C  0.04032246  0.30321132  0.01220346     0.30000
C1388       C  0.05875465  0.30932327  0.98146530    -0.19500
C1389       C  0.05701548  0.30206077  0.93663869    -0.28900
C1390       C  0.03728808  0.28692477  0.92341928     0.44000
C1391       C  0.99734707  0.28922485  0.02730500     0.05200
O1392       O  0.04182399  0.31213668  0.05498243    -0.57400
H1393       H  0.07383257  0.32091753  0.99218079     0.18100
O1394       O  0.03498360  0.27959724  0.87977599    -0.64100
H1395       H  0.00280565  0.27056861  0.94305938     0.16600
C1396       C  0.97645551  0.30313781  0.01509192     0.28800
C1397       C  0.95899723  0.30973572  0.04750045    -0.25000
C1398       C  0.96154616  0.30191439  0.09198202    -0.24300
C1399       C  0.98082443  0.28551756  0.10292302     0.40300
C1400       C  0.99876220  0.27953707  0.07076611    -0.26800
O1401       O  0.97436587  0.31268010  0.97281074    -0.58700
H1402       H  0.94412228  0.32209818  0.03835999     0.15900
O1403       O  0.98388464  0.27748811  0.14601138    -0.60100
H1404       H  0.01471679  0.26876708  0.08059429     0.14400
H1405       H  0.02562676  0.29297480  0.86483383     0.46200
H1406       H  0.96414995  0.30069817  0.95622844     0.41600
H1407       H  0.97455432  0.26188136  0.14779569     0.45100
H1408       H  0.03348937  0.32839720  0.05413064     0.36500
C1409       C  0.21578673  0.18261425  0.85490376    -0.27700
C1410       C  0.21864403  0.20796655  0.86172097     0.01900
C1411       C  0.24262765  0.21752532  0.86656799     0.30000
C1412       C  0.26314733  0.20202024  0.86333088    -0.19500
C1413       C  0.26047611  0.17677071  0.85457098    -0.28900
C1414       C  0.23640385  0.16704408  0.85135255     0.44000
C1415       C  0.19689906  0.22472427  0.86130078     0.05200
O1416       O  0.24634130  0.24221081  0.87288389    -0.57400
H1417       H  0.28130791  0.21011290  0.86610912     0.18100
O1418       O  0.23271704  0.14248184  0.84385913    -0.64100
H1419       H  0.19748908  0.17487759  0.85184452     0.16600
C1420       C  0.18053251  0.22527823  0.82469452     0.28800
C1421       C  0.16298663  0.24422089  0.82104430    -0.25000
C1422       C  0.16172463  0.26287117  0.85331394    -0.24300
C1423       C  0.17679666  0.26119545  0.89155398     0.40300
C1424       C  0.19402838  0.24215771  0.89546968    -0.26800
O1425       O  0.18314654  0.20887361  0.79021616    -0.58700
H1426       H  0.15171538  0.24536041  0.79125332     0.15900
O1427       O  0.17584250  0.27891341  0.92411563    -0.60100
H1428       H  0.20607602  0.24172229  0.92430531     0.14400
H1429       H  0.23209703  0.13489555  0.87399418     0.46200
H1430       H  0.16977028  0.19672316  0.79462474     0.41600
H1431       H  0.16158604  0.27442853  0.94325393     0.45100
H1432       H  0.24577080  0.24957574  0.84256592     0.36500
C1433       C  0.19993904  0.40083696  0.11439105    -0.27700
C1434       C  0.18987405  0.37799505  0.10301873     0.01900
C1435       C  0.18638538  0.36009706  0.13616063     0.30000
C1436       C  0.19212996  0.36542407  0.18042346    -0.19500
C1437       C  0.20099974  0.38874249  0.19266769    -0.28900
C1438       C  0.20549149  0.40634588  0.15894861     0.44000
C1439       C  0.18027960  0.37380555  0.05778814     0.05200
O1440       O  0.17616864  0.33777415  0.12592640    -0.57400
H1441       H  0.18863525  0.35148057  0.20551143     0.18100
O1442       O  0.21423096  0.42926609  0.16922921    -0.64100
H1443       H  0.20256824  0.41474254  0.08888301     0.16600
C1444       C  0.15941215  0.38688024  0.04315849     0.28800
C1445       C  0.14849467  0.38087830  0.00254530    -0.25000
C1446       C  0.15845065  0.36223180  0.97551412    -0.24300
C1447       C  0.17984323  0.34961150  0.98953084     0.40300
C1448       C  0.19041120  0.35521507  0.03089727    -0.26800
O1449       O  0.14884129  0.40471206  0.06944373    -0.58700
H1450       H  0.13224435  0.39099348  0.99201156     0.15900
O1451       O  0.18978251  0.33102999  0.96419765    -0.60100
H1452       H  0.20633007  0.34487478  0.04230258     0.14400
H1453       H  0.19935578  0.43985052  0.17199788     0.46200
H1454       H  0.15548289  0.42046343  0.05795809     0.41600
H1455       H  0.20375013  0.33861426  0.94781177     0.45100
H1456       H  0.15810484  0.34015849  0.12941142     0.36500
C1457       C  0.16899751  0.37599602  0.55787088    -0.27700
C1458       C  0.16061265  0.35169825  0.55964764     0.01900
C1459       C  0.15647009  0.33863145  0.51999085     0.30000
C1460       C  0.16049424  0.35005957  0.47887526    -0.19500
C1461       C  0.16819206  0.37465557  0.47692700    -0.28900
C1462       C  0.17252854  0.38764070  0.51679916     0.44000
C1463       C  0.15455484  0.34098008  0.60323934     0.05200
O1464       O  0.14799334  0.31492766  0.52114187    -0.57400
H1465       H  0.15698521  0.33988454  0.44844763     0.18100
O1466       O  0.18079363  0.41143786  0.51595324    -0.64100
H1467       H  0.17216260  0.38613987  0.58846687     0.16600
C1468       C  0.17312253  0.33616405  0.63461090     0.28800
C1469       C  0.16668750  0.32992655  0.67833594    -0.25000
C1470       C  0.14174824  0.32852619  0.69137631    -0.24300
C1471       C  0.12318986  0.33200896  0.65890847     0.40300
C1472       C  0.12973830  0.33818462  0.61514301    -0.26800
O1473       O  0.19753684  0.33867603  0.62332924    -0.58700
H1474       H  0.18128915  0.32709452  0.70248440     0.15900
O1475       O  0.09866017  0.33157838  0.67029627    -0.60100
H1476       H  0.11536755  0.34212450  0.59101690     0.14400
H1477       H  0.16584961  0.42176506  0.52028337     0.46200
H1478       H  0.20299433  0.32202620  0.61402779     0.41600
H1479       H  0.09274268  0.31516320  0.66088465     0.45100
H1480       H  0.16285293  0.30459644  0.52616348     0.36500
C1481       C  0.14802534  0.51189866  0.77121166    -0.27700
C1482       C  0.16568148  0.49598757  0.78954847     0.01900
C1483       C  0.18996624  0.50462229  0.79589839     0.30000
C1484       C  0.19657415  0.52815681  0.78094046    -0.19500
C1485       C  0.17904420  0.54358651  0.76051537    -0.28900
C1486       C  0.15427430  0.53561110  0.75806529     0.44000
C1487       C  0.15865404  0.47020618  0.79970512     0.05200
O1488       O  0.20752919  0.49000438  0.81559262    -0.57400
H1489       H  0.21560053  0.53394386  0.78388847     0.18100
O1490       O  0.13601816  0.55047652  0.74118874    -0.64100
H1491       H  0.12933170  0.50572909  0.76555441     0.16600
C1492       C  0.13654373  0.46475039  0.82250669     0.28800
C1493       C  0.12998519  0.44032840  0.83040726    -0.25000
C1494       C  0.14502397  0.42079972  0.81578141    -0.24300
C1495       C  0.16692136  0.42628106  0.79203916     0.40300
C1496       C  0.17350307  0.45076103  0.78424026    -0.26800
O1497       O  0.12174009  0.48318400  0.83900462    -0.58700
H1498       H  0.11310430  0.43679550  0.84875750     0.15900
O1499       O  0.18237109  0.40800550  0.77708709    -0.60100
H1500       H  0.19019828  0.45453246  0.76549109     0.14400
H1501       H  0.13085548  0.56108412  0.76651527     0.46200
H1502       H  0.10627905  0.48242075  0.82137446     0.41600
H1503       H  0.17675308  0.40431734  0.74629651     0.45100
H1504       H  0.20498034  0.49209226  0.84820428     0.36500
loop_ 
_geom_bond_atom_site_label_1 
_geom_bond_atom_site_label_2 
_geom_bond_distance 
_geom_bond_site_symmetry_2 
_ccdc_geom_bond_type 
Fe1          O17   2.060       .  S
Fe1           O7   2.038       .  S
Fe1          O14   2.055       .  S
Fe1           O6   2.058       .  S
Fe1          O12   1.969       .  S
Fe2           O5   2.066       .  S
Fe2           O9   2.046       .  S
Fe2          O13   2.064       .  S
Fe2          O18   2.052       .  S
Fe2          O12   1.960       .  S
Fe3          O21   2.068       .  S
Fe3           O8   2.087       .  S
Fe3          O15   2.095       .  S
Fe3           O4   2.057       .  S
Fe3          O12   1.977       .  S
O4           C11   1.268       .  A
O5           C19   1.271       .  A
O6           C11   1.269       .  A
O7           C10   1.264       .  A
O8           C20   1.273       .  A
O9           C22   1.266       .  A
C10          O15   1.273       .  A
C10        C1422   1.477       .  S
C11        C1470   1.477       .  S
O13          C16   1.270       .  A
O14          C16   1.267       .  A
C16        C1494   1.485       .  S
O17          C22   1.266       .  A
O18          C20   1.266       .  A
C19          O21   1.270       .  A
C19        C1389   1.476       .  S
C20        C1374   1.493       .  S
C22        C1446   1.470       .  S
Fe23         O39   2.058       .  S
Fe23         O29   2.059       .  S
Fe23         O36   2.059       .  S
Fe23         O28   2.048       .  S
Fe23         O34   1.970       .  S
Fe24         O27   2.050       .  S
Fe24         O31   2.066       .  S
Fe24         O35   2.041       .  S
Fe24         O40   2.059       .  S
Fe24         O34   1.962       .  S
Fe25         O43   2.084       .  S
Fe25         O30   2.069       .  S
Fe25         O37   2.065       .  S
Fe25         O26   2.082       .  S
Fe25         O34   1.977       .  S
O26          C33   1.271       .  A
O27          C41   1.265       .  A
O28          C33   1.266       .  A
O29          C32   1.269       .  A
O30          C42   1.271       .  A
O31          C44   1.270       .  A
C32          O37   1.271       .  A
C32        C1317   1.475       .  S
C33        C1413   1.489       .  S
O35          C38   1.264       .  A
O36          C38   1.267       .  A
C38        C1293   1.478       .  S
O39          C44   1.268       .  A
O40          C42   1.270       .  A
C41          O43   1.272       .  A
C41        C1245   1.486       .  S
C42        C1278   1.477       .  S
C44        C1341   1.488       .  S
Fe45         O61   2.054       .  S
Fe45         O51   2.033       .  S
Fe45         O58   2.046       .  S
Fe45         O50   2.044       .  S
Fe45         O56   1.976       .  S
Fe46         O49   2.046       .  S
Fe46         O53   2.049       .  S
Fe46         O57   2.051       .  S
Fe46         O62   2.055       .  S
Fe46         O56   1.970       .  S
Fe47         O65   2.074       .  S
Fe47         O52   2.080       .  S
Fe47         O59   2.082       .  S
Fe47         O48   2.073       .  S
Fe47         O56   1.984       .  S
O48          C55   1.272       .  A
O49          C63   1.268       .  A
O50          C55   1.267       .  A
O51          C54   1.262       .  A
O52          C64   1.271       .  A
O53          C66   1.267       .  A
C54          O59   1.271       .  A
C54        C1149   1.486       .  S
C55        C1197   1.476       .  S
O57          C60   1.266       .  A
O58          C60   1.264       .  A
C60        C1221   1.471       .  S
O61          C66   1.265       .  A
O62          C64   1.266       .  A
C63          O65   1.271       .  A
C63        C1101   1.477       .  S
C64        C1125   1.488       .  S
C66        C1182   1.480       .  S
Fe67         O83   2.067       .  S
Fe67         O73   2.048       .  S
Fe67         O80   2.048       .  S
Fe67         O72   2.049       .  S
Fe67         O78   1.977       .  S
Fe68         O71   2.059       .  S
Fe68         O75   2.078       .  S
Fe68         O79   2.063       .  S
Fe68         O84   2.066       .  S
Fe68         O78   1.972       .  S
Fe69         O87   2.068       .  S
Fe69         O74   2.069       .  S
Fe69         O81   2.067       .  S
Fe69         O70   2.080       .  S
Fe69         O78   1.989       .  S
O70          C77   1.269       .  A
O71          C85   1.267       .  A
O72          C77   1.265       .  A
O73          C76   1.267       .  A
O74          C86   1.271       .  A
O75          C88   1.270       .  A
C76          O81   1.270       .  A
C76        C1053   1.475       .  S
C77        C1158   1.476       .  S
O79          C82   1.268       .  A
O80          C82   1.265       .  A
C82        C1038   1.475       .  S
O83          C88   1.269       .  A
O84          C86   1.271       .  A
C85          O87   1.269       .  A
C85        C1014   1.487       .  S
C86        C1269   1.474       .  S
C88        C1077   1.478       .  S
Fe89        O105   2.048       .  S
Fe89         O95   2.069       .  S
Fe89        O102   2.068       .  S
Fe89         O94   2.036       .  S
Fe89        O100   1.942       .  S
Fe90         O93   2.050       .  S
Fe90         O97   2.089       .  S
Fe90        O101   2.045       .  S
Fe90        O106   2.068       .  S
Fe90        O100   1.941       .  S
Fe91        O109   2.104       .  S
Fe91         O96   2.056       .  S
Fe91        O103   2.054       .  S
Fe91         O92   2.113       .  S
Fe91        O100   1.959       .  S
O92          C99   1.278       .  A
O93         C107   1.268       .  A
O94          C99   1.264       .  A
O95          C98   1.270       .  A
O96         C108   1.269       .  A
O97         C110   1.274       .  A
C98         O103   1.270       .  A
C98         C966   1.480       .  S
C99         C909   1.490       .  S
O101        C104   1.266       .  A
O102        C104   1.269       .  A
C104        C942   1.477       .  S
O105        C110   1.267       .  A
O106        C108   1.273       .  A
C107        O109   1.277       .  A
C107        C894   1.491       .  S
C108        C870   1.468       .  S
C110        C981   1.484       .  S
Fe111       O127   2.062       .  S
Fe111       O117   2.045       .  S
Fe111       O124   2.053       .  S
Fe111       O116   2.060       .  S
Fe111       O122   1.972       .  S
Fe112       O115   2.069       .  S
Fe112       O119   2.039       .  S
Fe112       O123   2.070       .  S
Fe112       O128   2.048       .  S
Fe112       O122   1.964       .  S
Fe113       O131   2.073       .  S
Fe113       O118   2.084       .  S
Fe113       O125   2.091       .  S
Fe113       O114   2.064       .  S
Fe113       O122   1.976       .  S
O114        C121   1.270       .  A
O115        C129   1.272       .  A
O116        C121   1.268       .  A
O117        C120   1.266       .  A
O118        C130   1.272       .  A
O119        C132   1.263       .  A
C120        O125   1.273       .  A
C120        C918   1.481       .  S
C121        C822   1.483       .  S
O123        C126   1.271       .  A
O124        C126   1.267       .  A
C126        C846   1.486       .  S
O127        C132   1.266       .  A
O128        C130   1.265       .  A
C129        O131   1.272       .  A
C129       C1398   1.480       .  S
C130        C765   1.489       .  S
C132        C798   1.474       .  S
Fe133       O149   2.067       .  S
Fe133       O139   2.039       .  S
Fe133       O146   2.046       .  S
Fe133       O138   2.070       .  S
Fe133       O144   1.956       .  S
Fe134       O137   2.073       .  S
Fe134       O141   2.042       .  S
Fe134       O145   2.093       .  S
Fe134       O150   2.055       .  S
Fe134       O144   1.954       .  S
Fe135       O153   2.051       .  S
Fe135       O140   2.086       .  S
Fe135       O147   2.091       .  S
Fe135       O136   2.050       .  S
Fe135       O144   1.963       .  S
O136        C143   1.267       .  A
O137        C151   1.272       .  A
O138        C143   1.269       .  A
O139        C142   1.266       .  A
O140        C152   1.275       .  A
O141        C154   1.264       .  A
C142        O147   1.274       .  A
C142        C669   1.480       .  S
C143        C717   1.479       .  S
O145        C148   1.275       .  A
O146        C148   1.268       .  A
C148        C750   1.488       .  S
O149        C154   1.268       .  A
O150        C152   1.268       .  A
C151        O153   1.267       .  A
C151       C1110   1.467       .  S
C152        C645   1.490       .  S
C154        C693   1.472       .  S
Fe155       O171   2.050       .  S
Fe155       O161   2.057       .  S
Fe155       O168   2.063       .  S
Fe155       O160   2.036       .  S
Fe155       O166   1.970       .  S
Fe156       O159   2.051       .  S
Fe156       O163   2.067       .  S
Fe156       O167   2.046       .  S
Fe156       O172   2.060       .  S
Fe156       O166   1.966       .  S
Fe157       O175   2.077       .  S
Fe157       O162   2.062       .  S
Fe157       O169   2.059       .  S
Fe157       O158   2.079       .  S
Fe157       O166   1.986       .  S
O158        C165   1.268       .  A
O159        C173   1.265       .  A
O160        C165   1.262       .  A
O161        C164   1.272       .  A
O162        C174   1.270       .  A
O163        C176   1.268       .  A
C164        O169   1.270       .  A
C164        C597   1.477       .  S
C165        C678   1.485       .  S
O167        C170   1.266       .  A
O168        C170   1.269       .  A
C170        C573   1.480       .  S
O171        C176   1.265       .  A
O172        C174   1.271       .  A
C173        O175   1.269       .  A
C173        C549   1.486       .  S
C174        C861   1.469       .  S
C176        C630   1.486       .  S
Fe177       O193   2.066       .  S
Fe177       O183   2.055       .  S
Fe177       O190   2.069       .  S
Fe177       O182   2.059       .  S
Fe177       O188   1.964       .  S
Fe178       O181   2.062       .  S
Fe178       O185   2.046       .  S
Fe178       O189   2.074       .  S
Fe178       O194   2.052       .  S
Fe178       O188   1.961       .  S
Fe179       O197   2.053       .  S
Fe179       O184   2.084       .  S
Fe179       O191   2.095       .  S
Fe179       O180   2.045       .  S
Fe179       O188   1.979       .  S
O180        C187   1.266       .  A
O181        C195   1.271       .  A
O182        C187   1.271       .  A
O183        C186   1.267       .  A
O184        C196   1.271       .  A
O185        C198   1.265       .  A
C186        O191   1.272       .  A
C186        C501   1.484       .  S
C187       C1302   1.474       .  S
O189        C192   1.271       .  A
O190        C192   1.270       .  A
C192       C1005   1.493       .  S
O193        C198   1.268       .  A
O194        C196   1.266       .  A
C195        O197   1.268       .  A
C195        C525   1.461       .  S
C196        C990   1.486       .  S
C198       C1326   1.481       .  S
Fe199       O215   2.071       .  S
Fe199       O205   2.034       .  S
Fe199       O212   2.042       .  S
Fe199       O204   2.065       .  S
Fe199       O210   1.971       .  S
Fe200       O203   2.053       .  S
Fe200       O207   2.065       .  S
Fe200       O211   2.055       .  S
Fe200       O216   2.052       .  S
Fe200       O210   1.975       .  S
Fe201       O219   2.057       .  S
Fe201       O206   2.072       .  S
Fe201       O213   2.077       .  S
Fe201       O202   2.070       .  S
Fe201       O210   1.987       .  S
O202        C209   1.269       .  A
O203        C217   1.267       .  A
O204        C209   1.269       .  A
O205        C208   1.264       .  A
O206        C218   1.270       .  A
O207        C220   1.268       .  A
C208        O213   1.271       .  A
C208       C1437   1.480       .  S
C209        C510   1.493       .  S
O211        C214   1.267       .  A
O212        C214   1.264       .  A
C214       C1461   1.466       .  S
O215        C220   1.269       .  A
O216        C218   1.267       .  A
C217        O219   1.268       .  A
C217       C1230   1.474       .  S
C218        C477   1.478       .  S
C220        C774   1.485       .  S
Fe221       O237   2.071       .  S
Fe221       O227   2.036       .  S
Fe221       O234   2.055       .  S
Fe221       O226   2.058       .  S
Fe221       O232   1.967       .  S
Fe222       O225   2.057       .  S
Fe222       O229   2.063       .  S
Fe222       O233   2.065       .  S
Fe222       O238   2.050       .  S
Fe222       O232   1.966       .  S
Fe223       O241   2.074       .  S
Fe223       O228   2.072       .  S
Fe223       O235   2.070       .  S
Fe223       O224   2.080       .  S
Fe223       O232   1.982       .  S
O224        C231   1.270       .  A
O225        C239   1.268       .  A
O226        C231   1.268       .  A
O227        C230   1.266       .  A
O228        C240   1.271       .  A
O229        C242   1.268       .  A
C230        O235   1.270       .  A
C230        C789   1.466       .  S
C231        C438   1.485       .  S
O233        C236   1.269       .  A
O234        C236   1.266       .  A
C236        C813   1.484       .  S
O237        C242   1.270       .  A
O238        C240   1.269       .  A
C239        O241   1.269       .  A
C239        C741   1.491       .  S
C240        C462   1.478       .  S
C242       C1365   1.486       .  S
Fe243       O259   2.061       .  S
Fe243       O249   2.054       .  S
Fe243       O256   2.069       .  S
Fe243       O248   2.055       .  S
Fe243       O254   1.973       .  S
Fe244       O247   2.057       .  S
Fe244       O251   2.048       .  S
Fe244       O255   2.066       .  S
Fe244       O260   2.050       .  S
Fe244       O254   1.968       .  S
Fe245       O263   2.058       .  S
Fe245       O250   2.078       .  S
Fe245       O257   2.081       .  S
Fe245       O246   2.054       .  S
Fe245       O254   1.982       .  S
O246        C253   1.268       .  A
O247        C261   1.270       .  A
O248        C253   1.270       .  A
O249        C252   1.266       .  A
O250        C262   1.270       .  A
O251        C264   1.265       .  A
C252        O257   1.270       .  A
C252        C429   1.487       .  S
C253        C933   1.479       .  S
O255        C258   1.270       .  A
O256        C258   1.269       .  A
C258        C558   1.489       .  S
O259        C264   1.267       .  A
O260        C262   1.265       .  A
C261        O263   1.269       .  A
C261        C534   1.469       .  S
C262       C1350   1.491       .  S
C264        C957   1.483       .  S
Fe265       O281   2.068       .  S
Fe265       O271   2.056       .  S
Fe265       O278   2.066       .  S
Fe265       O270   2.068       .  S
Fe265       O276   1.957       .  S
Fe266       O269   2.075       .  S
Fe266       O273   2.044       .  S
Fe266       O277   2.078       .  S
Fe266       O282   2.057       .  S
Fe266       O276   1.948       .  S
Fe267       O285   2.061       .  S
Fe267       O272   2.095       .  S
Fe267       O279   2.094       .  S
Fe267       O268   2.048       .  S
Fe267       O276   1.966       .  S
O268        C275   1.270       .  A
O269        C283   1.275       .  A
O270        C275   1.272       .  A
O271        C274   1.266       .  A
O272        C284   1.273       .  A
O273        C286   1.267       .  A
C274        O279   1.272       .  A
C274        C381   1.478       .  S
C275        C582   1.473       .  S
O277        C280   1.272       .  A
O278        C280   1.270       .  A
C280        C885   1.492       .  S
O281        C286   1.269       .  A
O282        C284   1.266       .  A
C283        O285   1.272       .  A
C283        C414   1.473       .  S
C284       C1086   1.490       .  S
C286        C606   1.477       .  S
Fe287       O303   2.061       .  S
Fe287       O293   2.055       .  S
Fe287       O300   2.068       .  S
Fe287       O292   2.045       .  S
Fe287       O298   1.968       .  S
Fe288       O291   2.040       .  S
Fe288       O295   2.079       .  S
Fe288       O299   2.041       .  S
Fe288       O304   2.071       .  S
Fe288       O298   1.965       .  S
Fe289       O307   2.080       .  S
Fe289       O294   2.060       .  S
Fe289       O301   2.060       .  S
Fe289       O290   2.087       .  S
Fe289       O298   1.981       .  S
O290        C297   1.273       .  A
O291        C305   1.264       .  A
O292        C297   1.266       .  A
O293        C296   1.268       .  A
O294        C306   1.269       .  A
O295        C308   1.272       .  A
C296        O301   1.268       .  A
C296        C702   1.473       .  S
C297        C390   1.491       .  S
O299        C302   1.265       .  A
O300        C302   1.267       .  A
C302        C726   1.479       .  S
O303        C308   1.268       .  A
O304        C306   1.272       .  A
C305        O307   1.271       .  A
C305        C837   1.484       .  S
C306        C453   1.475       .  S
C308       C1134   1.490       .  S
Fe309       O325   2.071       .  S
Fe309       O315   2.062       .  S
Fe309       O322   2.073       .  S
Fe309       O314   2.066       .  S
Fe309       O320   1.969       .  S
Fe310       O313   2.058       .  S
Fe310       O317   2.042       .  S
Fe310       O321   2.070       .  S
Fe310       O326   2.045       .  S
Fe310       O320   1.963       .  S
Fe311       O329   2.065       .  S
Fe311       O316   2.075       .  S
Fe311       O323   2.076       .  S
Fe311       O312   2.062       .  S
Fe311       O320   1.982       .  S
O312        C319   1.269       .  A
O313        C327   1.270       .  A
O314        C319   1.271       .  A
O315        C318   1.269       .  A
O316        C328   1.270       .  A
O317        C330   1.264       .  A
C318        O323   1.270       .  A
C318        C357   1.484       .  S
C319       C1029   1.483       .  S
O321        C324   1.271       .  A
O322        C324   1.271       .  A
C324       C1254   1.485       .  S
O325        C330   1.268       .  A
O326        C328   1.264       .  A
C327        O329   1.270       .  A
C327        C405   1.470       .  S
C328        C621   1.487       .  S
C330       C1062   1.485       .  S
Fe331       O347   2.063       .  S
Fe331       O337   2.047       .  S
Fe331       O344   2.057       .  S
Fe331       O336   2.039       .  S
Fe331       O342   1.972       .  S
Fe332       O335   2.032       .  S
Fe332       O339   2.064       .  S
Fe332       O343   2.046       .  S
Fe332       O348   2.046       .  S
Fe332       O342   1.968       .  S
Fe333       O351   2.087       .  S
Fe333       O338   2.077       .  S
Fe333       O345   2.071       .  S
Fe333       O334   2.093       .  S
Fe333       O342   1.994       .  S
O334        C341   1.272       .  A
O335        C349   1.263       .  A
O336        C341   1.264       .  A
O337        C340   1.268       .  A
O338        C350   1.271       .  A
O339        C352   1.267       .  A
C340        O345   1.271       .  A
C340       C1173   1.472       .  S
C341        C366   1.492       .  S
O343        C346   1.265       .  A
O344        C346   1.267       .  A
C346       C1206   1.477       .  S
O347        C352   1.268       .  A
O348        C350   1.267       .  A
C349        O351   1.272       .  A
C349       C1485   1.484       .  S
C350        C486   1.477       .  S
C352        C654   1.491       .  S
C353        C354   1.403       .  A
C353        C358   1.402       .  A
C353        H363   1.083       .  S
C354        C359   1.484       .  S
C354        C355   1.410       .  A
C355        C356   1.399       .  A
C355        O360   1.372       .  S
C356        C357   1.405       .  A
C356        H361   1.084       .  S
C357        C358   1.412       .  A
C358        O362   1.372       .  S
C359        C364   1.409       .  A
C359        C368   1.398       .  A
O360        H376   0.992       .  S
O362        H373   0.992       .  S
C364        C365   1.410       .  A
C364        O369   1.372       .  S
C365        C366   1.409       .  A
C365        H370   1.083       .  S
C366        C367   1.417       .  A
C367        C368   1.392       .  A
C367        O371   1.372       .  S
C368        H372   1.084       .  S
O369        H374   0.992       .  S
O371        H375   0.992       .  S
C377        C378   1.405       .  A
C377        C382   1.403       .  A
C377        H387   1.083       .  S
C378        C383   1.485       .  S
C378        C379   1.409       .  A
C379        C380   1.400       .  A
C379        O384   1.371       .  S
C380        C381   1.403       .  A
C380        H385   1.084       .  S
C381        C382   1.410       .  A
C382        O386   1.372       .  S
C383        C388   1.407       .  A
C383        C392   1.400       .  A
O384        H400   0.992       .  S
O386        H397   0.992       .  S
C388        C389   1.405       .  A
C388        O393   1.372       .  S
C389        C390   1.409       .  A
C389        H394   1.083       .  S
C390        C391   1.417       .  A
C391        C392   1.397       .  A
C391        O395   1.372       .  S
C392        H396   1.084       .  S
O393        H398   0.992       .  S
O395        H399   0.992       .  S
C401        C402   1.403       .  A
C401        C406   1.401       .  A
C401        H411   1.083       .  S
C402        C407   1.475       .  S
C402        C403   1.407       .  A
C403        C404   1.396       .  A
C403        O408   1.372       .  S
C404        C405   1.402       .  A
C404        H409   1.084       .  S
C405        C406   1.408       .  A
C406        O410   1.371       .  S
C407        C412   1.408       .  A
C407        C416   1.402       .  A
O408        H424   0.992       .  S
O410        H421   0.992       .  S
C412        C413   1.396       .  A
C412        O417   1.372       .  S
C413        C414   1.403       .  A
C413        H418   1.084       .  S
C414        C415   1.409       .  A
C415        C416   1.402       .  A
C415        O419   1.371       .  S
C416        H420   1.083       .  S
O417        H422   0.992       .  S
O419        H423   0.992       .  S
C425        C426   1.401       .  A
C425        C430   1.399       .  A
C425        H435   1.084       .  S
C426        C431   1.481       .  S
C426        C427   1.406       .  A
C427        C428   1.404       .  A
C427        O432   1.371       .  S
C428        C429   1.408       .  A
C428        H433   1.083       .  S
C429        C430   1.413       .  A
C430        O434   1.372       .  S
C431        C436   1.405       .  A
C431        C440   1.404       .  A
O432        H448   0.992       .  S
O434        H445   0.992       .  S
C436        C437   1.396       .  A
C436        O441   1.372       .  S
C437        C438   1.405       .  A
C437        H442   1.084       .  S
C438        C439   1.412       .  A
C439        C440   1.408       .  A
C439        O443   1.371       .  S
C440        H444   1.083       .  S
O441        H446   0.992       .  S
O443        H447   0.992       .  S
C449        C450   1.401       .  A
C449        C454   1.399       .  A
C449        H459   1.084       .  S
C450        C455   1.475       .  S
C450        C451   1.409       .  A
C451        C452   1.399       .  A
C451        O456   1.372       .  S
C452        C453   1.403       .  A
C452        H457   1.084       .  S
C453        C454   1.410       .  A
C454        O458   1.371       .  S
C455        C460   1.406       .  A
C455        C464   1.401       .  A
O456        H472   0.992       .  S
O458        H469   0.991       .  S
C460        C461   1.403       .  A
C460        O465   1.372       .  S
C461        C462   1.408       .  A
C461        H466   1.083       .  S
C462        C463   1.410       .  A
C463        C464   1.393       .  A
C463        O467   1.372       .  S
C464        H468   1.084       .  S
O465        H470   0.992       .  S
O467        H471   0.992       .  S
C473        C474   1.402       .  A
C473        C478   1.401       .  A
C473        H483   1.084       .  S
C474        C479   1.474       .  S
C474        C475   1.407       .  A
C475        C476   1.397       .  A
C475        O480   1.372       .  S
C476        C477   1.405       .  A
C476        H481   1.084       .  S
C477        C478   1.410       .  A
C478        O482   1.371       .  S
C479        C484   1.406       .  A
C479        C488   1.400       .  A
O480        H496   0.992       .  S
O482        H493   0.992       .  S
C484        C485   1.405       .  A
C484        O489   1.372       .  S
C485        C486   1.406       .  A
C485        H490   1.083       .  S
C486        C487   1.411       .  A
C487        C488   1.393       .  A
C487        O491   1.372       .  S
C488        H492   1.084       .  S
O489        H494   0.992       .  S
O491        H495   0.991       .  S
C497        C498   1.408       .  A
C497        C502   1.406       .  A
C497        H507   1.083       .  S
C498        C503   1.494       .  S
C498        C499   1.411       .  A
C499        C500   1.400       .  A
C499        O504   1.371       .  S
C500        C501   1.404       .  A
C500        H505   1.084       .  S
C501        C502   1.410       .  A
C502        O506   1.372       .  S
C503        C508   1.410       .  A
C503        C512   1.404       .  A
O504        H520   0.991       .  S
O506        H517   0.992       .  S
C508        C509   1.408       .  A
C508        O513   1.373       .  S
C509        C510   1.410       .  A
C509        H514   1.083       .  S
C510        C511   1.413       .  A
C511        C512   1.398       .  A
C511        O515   1.372       .  S
C512        H516   1.083       .  S
O513        H518   0.992       .  S
O515        H519   0.992       .  S
C521        C522   1.404       .  A
C521        C526   1.394       .  A
C521        H531   1.083       .  S
C522        C527   1.476       .  S
C522        C523   1.409       .  A
C523        C524   1.398       .  A
C523        O528   1.371       .  S
C524        C525   1.402       .  A
C524        H529   1.084       .  S
C525        C526   1.403       .  A
C526        O530   1.371       .  S
C527        C532   1.408       .  A
C527        C536   1.403       .  A
O528        H544   0.991       .  S
O530        H541   0.992       .  S
C532        C533   1.401       .  A
C532        O537   1.373       .  S
C533        C534   1.403       .  A
C533        H538   1.084       .  S
C534        C535   1.408       .  A
C535        C536   1.393       .  A
C535        O539   1.372       .  S
C536        H540   1.084       .  S
O537        H542   0.992       .  S
O539        H543   0.992       .  S
C545        C546   1.404       .  A
C545        C550   1.399       .  A
C545        H555   1.082       .  S
C546        C551   1.492       .  S
C546        C547   1.412       .  A
C547        C548   1.402       .  A
C547        O552   1.372       .  S
C548        C549   1.407   1_545  A
C548        H553   1.083       .  S
C549        C550   1.411   1_565  A
C550        O554   1.372   1_545  S
C551        C556   1.410       .  A
C551        C560   1.406       .  A
O552        H568   0.992       .  S
O554        H565   0.992       .  S
C556        C557   1.400       .  A
C556        O561   1.372       .  S
C557        C558   1.406       .  A
C557        H562   1.083       .  S
C558        C559   1.414       .  A
C559        C560   1.403       .  A
C559        O563   1.372       .  S
C560        H564   1.083       .  S
O561        H566   0.992       .  S
O563        H567   0.992       .  S
C569        C570   1.398       .  A
C569        C574   1.392       .  A
C569        H579   1.084       .  S
C570        C575   1.469       .  S
C570        C571   1.403       .  A
C571        C572   1.400   1_554  A
C571        O576   1.372       .  S
C572        C573   1.408       .  A
C572        H577   1.083       .  S
C573        C574   1.415   1_556  A
C574        O578   1.372       .  S
C575        C580   1.404       .  A
C575        C584   1.401       .  A
O576        H592   0.992       .  S
O578        H589   0.992       .  S
C580        C581   1.395       .  A
C580        O585   1.372       .  S
C581        C582   1.407       .  A
C581        H586   1.084       .  S
C582        C583   1.411       .  A
C583        C584   1.394       .  A
C583        O587   1.372       .  S
C584        H588   1.084       .  S
O585        H590   0.992       .  S
O587        H591   0.992       .  S
C593        C594   1.401       .  A
C593        C598   1.400       .  A
C593        H603   1.084       .  S
C594        C599   1.469       .  S
C594        C595   1.403       .  A
C595        C596   1.393       .  A
C595        O600   1.373       .  S
C596        C597   1.405       .  A
C596        H601   1.084       .  S
C597        C598   1.414       .  A
C598        O602   1.372       .  S
C599        C604   1.405       .  A
C599        C608   1.400       .  A
O600        H616   0.992       .  S
O602        H613   0.992       .  S
C604        C605   1.391       .  A
C604        O609   1.372       .  S
C605        C606   1.405       .  A
C605        H610   1.084       .  S
C606        C607   1.414       .  A
C607        C608   1.400       .  A
C607        O611   1.371       .  S
C608        H612   1.084       .  S
O609        H614   0.992       .  S
O611        H615   0.992       .  S
C617        C618   1.398       .  A
C617        C622   1.395       .  A
C617        H627   1.084       .  S
C618        C623   1.478       .  S
C618        C619   1.407       .  A
C619        C620   1.403       .  A
C619        O624   1.373       .  S
C620        C621   1.408       .  A
C620        H625   1.083       .  S
C621        C622   1.416       .  A
C622        O626   1.371       .  S
C623        C628   1.406       .  A
C623        C632   1.402       .  A
O624        H640   0.992       .  S
O626        H637   0.992       .  S
C628        C629   1.397       .  A
C628        O633   1.372       .  S
C629        C630   1.409       .  A
C629        H634   1.083       .  S
C630        C631   1.414       .  A
C631        C632   1.399       .  A
C631        O635   1.371       .  S
C632        H636   1.084       .  S
O633        H638   0.992       .  S
O635        H639   0.992       .  S
C641        C642   1.401       .  A
C641        C646   1.402       .  A
C641        H651   1.084       .  S
C642        C647   1.481       .  S
C642        C643   1.406       .  A
C643        C644   1.401       .  A
C643        O648   1.372       .  S
C644        C645   1.407   1_455  A
C644        H649   1.083   1_455  S
C645        C646   1.417   1_655  A
C646        O650   1.372   1_455  S
C647        C652   1.406       .  A
C647        C656   1.401       .  A
O648        H664   0.992       .  S
O650        H661   0.992       .  S
C652        C653   1.398       .  A
C652        O657   1.372       .  S
C653        C654   1.408       .  A
C653        H658   1.083       .  S
C654        C655   1.416       .  A
C655        C656   1.403       .  A
C655        O659   1.372       .  S
C656        H660   1.084       .  S
O657        H662   0.992       .  S
O659        H663   0.992       .  S
C665        C666   1.405       .  A
C665        C670   1.403       .  A
C665        H675   1.083       .  S
C666        C671   1.484       .  S
C666        C667   1.410       .  A
C667        C668   1.394       .  A
C667        O672   1.372       .  S
C668        C669   1.405       .  A
C668        H673   1.084       .  S
C669        C670   1.411       .  A
C670        O674   1.371       .  S
C671        C676   1.410       .  A
C671        C680   1.401       .  A
O672        H688   0.991       .  S
O674        H685   0.992       .  S
C676        C677   1.406       .  A
C676        O681   1.372       .  S
C677        C678   1.408       .  A
C677        H682   1.083       .  S
C678        C679   1.414       .  A
C679        C680   1.391       .  A
C679        O683   1.372       .  S
C680        H684   1.084       .  S
O681        H686   0.992       .  S
O683        H687   0.992       .  S
C689        C690   1.401       .  A
C689        C694   1.394       .  A
C689        H699   1.084       .  S
C690        C695   1.470       .  S
C690        C691   1.403       .  A
C691        C692   1.399   1_554  A
C691        O696   1.372       .  S
C692        C693   1.406       .  A
C692        H697   1.083       .  S
C693        C694   1.410   1_556  A
C694        O698   1.373       .  S
C695        C700   1.407       .  A
C695        C704   1.399       .  A
O696        H712   0.992       .  S
O698        H709   0.992       .  S
C700        C701   1.398       .  A
C700        O705   1.372       .  S
C701        C702   1.404       .  A
C701        H706   1.084       .  S
C702        C703   1.411       .  A
C703        C704   1.394       .  A
C703        O707   1.372       .  S
C704        H708   1.084       .  S
O705        H710   0.992       .  S
O707        H711   0.992       .  S
C713        C714   1.401       .  A
C713        C718   1.398       .  A
C713        H723   1.084       .  S
C714        C719   1.474       .  S
C714        C715   1.406       .  A
C715        C716   1.398       .  A
C715        O720   1.373       .  S
C716        C717   1.405       .  A
C716        H721   1.083       .  S
C717        C718   1.413       .  A
C718        O722   1.372       .  S
C719        C724   1.406       .  A
C719        C728   1.402       .  A
O720        H736   0.992       .  S
O722        H733   0.992       .  S
C724        C725   1.392       .  A
C724        O729   1.372       .  S
C725        C726   1.405       .  A
C725        H730   1.084       .  S
C726        C727   1.413       .  A
C727        C728   1.401       .  A
C727        O731   1.372       .  S
C728        H732   1.084       .  S
O729        H734   0.992       .  S
O731        H735   0.992       .  S
C737        C738   1.401       .  A
C737        C742   1.404       .  A
C737        H747   1.084       .  S
C738        C743   1.475       .  S
C738        C739   1.402       .  A
C739        C740   1.396       .  A
C739        O744   1.372       .  S
C740        C741   1.410       .  A
C740        H745   1.083       .  S
C741        C742   1.415       .  A
C742        O746   1.371       .  S
C743        C748   1.404       .  A
C743        C752   1.401       .  A
O744        H760   0.992       .  S
O746        H757   0.992       .  S
C748        C749   1.397       .  A
C748        O753   1.372       .  S
C749        C750   1.409       .  A
C749        H754   1.083       .  S
C750        C751   1.415       .  A
C751        C752   1.403       .  A
C751        O755   1.371       .  S
C752        H756   1.084       .  S
O753        H758   0.992       .  S
O755        H759   0.992       .  S
C761        C762   1.403       .  A
C761        C766   1.401       .  A
C761        H771   1.084       .  S
C762        C767   1.483       .  S
C762        C763   1.406       .  A
C763        C764   1.402   1_455  A
C763        O768   1.372       .  S
C764        C765   1.410       .  A
C764        H769   1.083       .  S
C765        C766   1.412   1_655  A
C766        O770   1.371   1_455  S
C767        C772   1.407       .  A
C767        C776   1.403       .  A
O768        H784   0.992       .  S
O770        H781   0.992       .  S
C772        C773   1.404       .  A
C772        O777   1.372       .  S
C773        C774   1.408       .  A
C773        H778   1.083       .  S
C774        C775   1.411       .  A
C775        C776   1.401       .  A
C775        O779   1.372       .  S
C776        H780   1.084       .  S
O777        H782   0.992       .  S
O779        H783   0.992       .  S
C785        C786   1.398       .  A
C785        C790   1.390       .  A
C785        H795   1.084       .  S
C786        C791   1.463       .  S
C786        C787   1.406       .  A
C787        C788   1.399       .  A
C787        O792   1.371       .  S
C788        C789   1.404       .  A
C788        H793   1.084       .  S
C789        C790   1.409       .  A
C790        O794   1.372       .  S
C791        C796   1.402   1_556  A
C791        C800   1.397       .  A
O792        H808   0.991       .  S
O794        H805   0.992       .  S
C796        C797   1.400       .  A
C796        O801   1.371       .  S
C797        C798   1.408       .  A
C797        H802   1.083       .  S
C798        C799   1.412       .  A
C799        C800   1.390   1_554  A
C799        O803   1.372       .  S
C800        H804   1.084       .  S
O801        H806   0.992       .  S
O803        H807   0.992       .  S
C809        C810   1.401       .  A
C809        C814   1.401       .  A
C809        H819   1.084       .  S
C810        C815   1.476       .  S
C810        C811   1.406       .  A
C811        C812   1.397       .  A
C811        O816   1.372       .  S
C812        C813   1.407       .  A
C812        H817   1.083       .  S
C813        C814   1.414       .  A
C814        O818   1.371       .  S
C815        C820   1.406       .  A
C815        C824   1.400       .  A
O816        H832   0.992       .  S
O818        H829   0.992       .  S
C820        C821   1.398       .  A
C820        O825   1.371       .  S
C821        C822   1.406       .  A
C821        H826   1.083       .  S
C822        C823   1.415       .  A
C823        C824   1.398       .  A
C823        O827   1.372       .  S
C824        H828   1.084       .  S
O825        H830   0.992       .  S
O827        H831   0.992       .  S
C833        C834   1.401       .  A
C833        C838   1.395       .  A
C833        H843   1.083       .  S
C834        C839   1.483       .  S
C834        C835   1.410       .  A
C835        C836   1.400       .  A
C835        O840   1.372       .  S
C836        C837   1.406       .  A
C836        H841   1.083       .  S
C837        C838   1.415       .  A
C838        O842   1.372       .  S
C839        C844   1.408       .  A
C839        C848   1.403       .  A
O840        H856   0.992       .  S
O842        H853   0.992       .  S
C844        C845   1.398       .  A
C844        O849   1.372       .  S
C845        C846   1.406       .  A
C845        H850   1.083       .  S
C846        C847   1.415       .  A
C847        C848   1.399       .  A
C847        O851   1.372       .  S
C848        H852   1.084       .  S
O849        H854   0.992       .  S
O851        H855   0.992       .  S
C857        C858   1.402   1_565  A
C857        C862   1.396   1_554  A
C857        H867   1.084       .  S
C858        C863   1.471       .  S
C858        C859   1.405   1_554  A
C859        C860   1.400   1_545  A
C859        O864   1.372       .  S
C860        C861   1.403       .  A
C860        H865   1.084       .  S
C861        C862   1.409       .  A
C862        O866   1.372   1_556  S
C863        C868   1.406       .  A
C863        C872   1.403       .  A
O864        H880   0.992       .  S
O866        H877   0.992       .  S
C868        C869   1.392       .  A
C868        O873   1.373   1_554  S
C869        C870   1.400       .  A
C869        H874   1.084       .  S
C870        C871   1.410       .  A
C871        C872   1.403       .  A
C871        O875   1.372       .  S
C872        H876   1.083       .  S
O873        H878   0.991       .  S
O875        H879   0.992       .  S
C881        C882   1.406       .  A
C881        C886   1.404       .  A
C881        H891   1.083       .  S
C882        C887   1.494       .  S
C882        C883   1.410       .  A
C883        C884   1.401       .  A
C883        O888   1.372       .  S
C884        C885   1.407       .  A
C884        H889   1.083       .  S
C885        C886   1.414       .  A
C886        O890   1.372       .  S
C887        C892   1.411   1_565  A
C887        C896   1.404   1_565  A
O888        H904   0.992       .  S
O890        H901   0.992       .  S
C892        C893   1.403       .  A
C892        O897   1.371   1_545  S
C893        C894   1.407       .  A
C893        H898   1.083       .  S
C894        C895   1.414       .  A
C895        C896   1.401       .  A
C895        O899   1.372       .  S
C896        H900   1.083       .  S
O897        H902   0.992       .  S
O899        H903   0.992       .  S
C905        C906   1.402       .  A
C905        C910   1.395       .  A
C905        H915   1.083       .  S
C906        C911   1.492       .  S
C906        C907   1.412       .  A
C907        C908   1.407       .  A
C907        O912   1.371       .  S
C908        C909   1.406       .  A
C908        H913   1.083       .  S
C909        C910   1.417       .  A
C910        O914   1.373       .  S
C911        C916   1.411       .  A
C911        C920   1.407       .  A
O912        H928   0.992       .  S
O914        H925   0.992       .  S
C916        C917   1.401       .  A
C916        O921   1.373       .  S
C917        C918   1.404       .  A
C917        H922   1.084       .  S
C918        C919   1.409       .  A
C919        C920   1.403       .  A
C919        O923   1.372       .  S
C920        H924   1.083       .  S
O921        H926   0.992       .  S
O923        H927   0.992       .  S
C929        C930   1.400       .  A
C929        C934   1.397       .  A
C929        H939   1.083       .  S
C930        C935   1.471       .  S
C930        C931   1.405       .  A
C931        C932   1.393       .  A
C931        O936   1.372       .  S
C932        C933   1.407       .  A
C932        H937   1.083       .  S
C933        C934   1.414       .  A
C934        O938   1.372       .  S
C935        C940   1.404   1_556  A
C935        C944   1.401       .  A
O936        H952   0.992       .  S
O938        H949   0.992       .  S
C940        C941   1.397       .  A
C940        O945   1.372       .  S
C941        C942   1.408       .  A
C941        H946   1.083       .  S
C942        C943   1.412       .  A
C943        C944   1.394   1_554  A
C943        O947   1.372       .  S
C944        H948   1.084       .  S
O945        H950   0.992       .  S
O947        H951   0.992       .  S
C953        C954   1.398       .  A
C953        C958   1.394       .  A
C953        H963   1.084       .  S
C954        C959   1.468       .  S
C954        C955   1.403       .  A
C955        C956   1.399       .  A
C955        O960   1.371       .  S
C956        C957   1.409       .  A
C956        H961   1.083       .  S
C957        C958   1.415       .  A
C958        O962   1.372       .  S
C959        C964   1.404       .  A
C959        C968   1.397       .  A
O960        H976   0.992       .  S
O962        H973   0.992       .  S
C964        C965   1.396       .  A
C964        O969   1.372       .  S
C965        C966   1.407       .  A
C965        H970   1.083       .  S
C966        C967   1.415       .  A
C967        C968   1.397       .  A
C967        O971   1.372       .  S
C968        H972   1.084       .  S
O969        H974   0.992       .  S
O971        H975   0.992       .  S
C977        C978   1.402       .  A
C977        C982   1.400       .  A
C977        H987   1.084       .  S
C978        C983   1.481       .  S
C978        C979   1.406       .  A
C979        C980   1.402       .  A
C979        O984   1.371       .  S
C980        C981   1.407       .  A
C980        H985   1.083       .  S
C981        C982   1.413       .  A
C982        O986   1.372       .  S
C983        C988   1.406       .  A
C983        C992   1.403       .  A
O984       H1000   0.992       .  S
O986        H997   0.992       .  S
C988        C989   1.399       .  A
C988        O993   1.372       .  S
C989        C990   1.408       .  A
C989        H994   1.083       .  S
C990        C991   1.412       .  A
C991        C992   1.403       .  A
C991        O995   1.371       .  S
C992        H996   1.083       .  S
O993        H998   0.992       .  S
O995        H999   0.992       .  S
C1001      C1002   1.403       .  A
C1001      C1006   1.402       .  A
C1001      H1011   1.084       .  S
C1002      C1007   1.485       .  S
C1002      C1003   1.406       .  A
C1003      C1004   1.400       .  A
C1003      O1008   1.372       .  S
C1004      C1005   1.409       .  A
C1004      H1009   1.083       .  S
C1005      C1006   1.415       .  A
C1006      O1010   1.372       .  S
C1007      C1012   1.408       .  A
C1007      C1016   1.403       .  A
O1008      H1024   0.992       .  S
O1010      H1021   0.992       .  S
C1012      C1013   1.399       .  A
C1012      O1017   1.371       .  S
C1013      C1014   1.407   1_545  A
C1013      H1018   1.083       .  S
C1014      C1015   1.414   1_565  A
C1015      C1016   1.402       .  A
C1015      O1019   1.372   1_545  S
C1016      H1020   1.084       .  S
O1017      H1022   0.992       .  S
O1019      H1023   0.992       .  S
C1025      C1026   1.401       .  A
C1025      C1030   1.400       .  A
C1025      H1035   1.084       .  S
C1026      C1031   1.472       .  S
C1026      C1027   1.403       .  A
C1027      C1028   1.396       .  A
C1027      O1032   1.372       .  S
C1028      C1029   1.407       .  A
C1028      H1033   1.083       .  S
C1029      C1030   1.414       .  A
C1030      O1034   1.372       .  S
C1031      C1036   1.404   1_556  A
C1031      C1040   1.402       .  A
O1032      H1048   0.992       .  S
O1034      H1045   0.992       .  S
C1036      C1037   1.399       .  A
C1036      O1041   1.372       .  S
C1037      C1038   1.407       .  A
C1037      H1042   1.084       .  S
C1038      C1039   1.409       .  A
C1039      C1040   1.397   1_554  A
C1039      O1043   1.372       .  S
C1040      H1044   1.084       .  S
O1041      H1046   0.992       .  S
O1043      H1047   0.992       .  S
C1049      C1050   1.402       .  A
C1049      C1054   1.400       .  A
C1049      H1059   1.084       .  S
C1050      C1055   1.469       .  S
C1050      C1051   1.402       .  A
C1051      C1052   1.395       .  A
C1051      O1056   1.372       .  S
C1052      C1053   1.406       .  A
C1052      H1057   1.084       .  S
C1053      C1054   1.411       .  A
C1054      O1058   1.372       .  S
C1055      C1060   1.402       .  A
C1055      C1064   1.399       .  A
O1056      H1072   0.992       .  S
O1058      H1069   0.992       .  S
C1060      C1061   1.396       .  A
C1060      O1065   1.372       .  S
C1061      C1062   1.410       .  A
C1061      H1066   1.083       .  S
C1062      C1063   1.414       .  A
C1063      C1064   1.399       .  A
C1063      O1067   1.371       .  S
C1064      H1068   1.084       .  S
O1065      H1070   0.992       .  S
O1067      H1071   0.992       .  S
C1073      C1074   1.407       .  A
C1073      C1078   1.401       .  A
C1073      H1083   1.083       .  S
C1074      C1079   1.497       .  S
C1074      C1075   1.415       .  A
C1075      C1076   1.406       .  A
C1075      O1080   1.371       .  S
C1076      C1077   1.403       .  A
C1076      H1081   1.084       .  S
C1077      C1078   1.407       .  A
C1078      O1082   1.372       .  S
C1079      C1084   1.412       .  A
C1079      C1088   1.406       .  A
O1080      H1096   0.992       .  S
O1082      H1093   0.992       .  S
C1084      C1085   1.403       .  A
C1084      O1089   1.372       .  S
C1085      C1086   1.405       .  A
C1085      H1090   1.084       .  S
C1086      C1087   1.413       .  A
C1087      C1088   1.405       .  A
C1087      O1091   1.372       .  S
C1088      H1092   1.083       .  S
O1089      H1094   0.992       .  S
O1091      H1095   0.992       .  S
C1097      C1098   1.404       .  A
C1097      C1102   1.402       .  A
C1097      H1107   1.083       .  S
C1098      C1103   1.478       .  S
C1098      C1099   1.409       .  A
C1099      C1100   1.393       .  A
C1099      O1104   1.373   1_554  S
C1100      C1101   1.404       .  A
C1100      H1105   1.084       .  S
C1101      C1102   1.410       .  A
C1102      O1106   1.371       .  S
C1103      C1108   1.410   1_455  A
C1103      C1112   1.403   1_554  A
O1104      H1120   0.992       .  S
O1106      H1117   0.992       .  S
C1108      C1109   1.398   1_554  A
C1108      O1113   1.372       .  S
C1109      C1110   1.401       .  A
C1109      H1114   1.084   1_556  S
C1110      C1111   1.407       .  A
C1111      C1112   1.398   1_655  A
C1111      O1115   1.372       .  S
C1112      H1116   1.084       .  S
O1113      H1118   0.992       .  S
O1115      H1119   0.991       .  S
C1121      C1122   1.404       .  A
C1121      C1126   1.402   1_655  A
C1121      H1131   1.084       .  S
C1122      C1127   1.486       .  S
C1122      C1123   1.407   1_655  A
C1123      C1124   1.403       .  A
C1123      O1128   1.372       .  S
C1124      C1125   1.408       .  A
C1124      H1129   1.084       .  S
C1125      C1126   1.412       .  A
C1126      O1130   1.371       .  S
C1127      C1132   1.408       .  A
C1127      C1136   1.403       .  A
O1128      H1144   0.992       .  S
O1130      H1141   0.992       .  S
C1132      C1133   1.402       .  A
C1132      O1137   1.371       .  S
C1133      C1134   1.408       .  A
C1133      H1138   1.083       .  S
C1134      C1135   1.414       .  A
C1135      C1136   1.401       .  A
C1135      O1139   1.372       .  S
C1136      H1140   1.084       .  S
O1137      H1142   0.992       .  S
O1139      H1143   0.992       .  S
C1145      C1146   1.399       .  A
C1145      C1150   1.394       .  A
C1145      H1155   1.084       .  S
C1146      C1151   1.480       .  S
C1146      C1147   1.407       .  A
C1147      C1148   1.405       .  A
C1147      O1152   1.372       .  S
C1148      C1149   1.407       .  A
C1148      H1153   1.083       .  S
C1149      C1150   1.416       .  A
C1150      O1154   1.373       .  S
C1151      C1156   1.409       .  A
C1151      C1160   1.402       .  A
O1152      H1168   0.992       .  S
O1154      H1165   0.992       .  S
C1156      C1157   1.403       .  A
C1156      O1161   1.372       .  S
C1157      C1158   1.404       .  A
C1157      H1162   1.084       .  S
C1158      C1159   1.409       .  A
C1159      C1160   1.397       .  A
C1159      O1163   1.373       .  S
C1160      H1164   1.084       .  S
O1161      H1166   0.992       .  S
O1163      H1167   0.992       .  S
C1169      C1170   1.402       .  A
C1169      C1174   1.398       .  A
C1169      H1179   1.084       .  S
C1170      C1175   1.467       .  S
C1170      C1171   1.403       .  A
C1171      C1172   1.395       .  A
C1171      O1176   1.372       .  S
C1172      C1173   1.406       .  A
C1172      H1177   1.084       .  S
C1173      C1174   1.409       .  A
C1174      O1178   1.372       .  S
C1175      C1180   1.402       .  A
C1175      C1184   1.400   1_556  A
O1176      H1192   0.992       .  S
O1178      H1189   0.992       .  S
C1180      C1181   1.391   1_556  A
C1180      O1185   1.372       .  S
C1181      C1182   1.406       .  A
C1181      H1186   1.083       .  S
C1182      C1183   1.415       .  A
C1183      C1184   1.400       .  A
C1183      O1187   1.372       .  S
C1184      H1188   1.084       .  S
O1185      H1190   0.992       .  S
O1187      H1191   0.992       .  S
C1193      C1194   1.403       .  A
C1193      C1198   1.397       .  A
C1193      H1203   1.084       .  S
C1194      C1199   1.472       .  S
C1194      C1195   1.404       .  A
C1195      C1196   1.396       .  A
C1195      O1200   1.372       .  S
C1196      C1197   1.408       .  A
C1196      H1201   1.084       .  S
C1197      C1198   1.408       .  A
C1198      O1202   1.371       .  S
C1199      C1204   1.405       .  A
C1199      C1208   1.400       .  A
O1200      H1216   0.992       .  S
O1202      H1213   0.992       .  S
C1204      C1205   1.398       .  A
C1204      O1209   1.371       .  S
C1205      C1206   1.407       .  A
C1205      H1210   1.083       .  S
C1206      C1207   1.413       .  A
C1207      C1208   1.394       .  A
C1207      O1211   1.372       .  S
C1208      H1212   1.084       .  S
O1209      H1214   0.992       .  S
O1211      H1215   0.992       .  S
C1217      C1218   1.401       .  A
C1217      C1222   1.395       .  A
C1217      H1227   1.084       .  S
C1218      C1223   1.466       .  S
C1218      C1219   1.403       .  A
C1219      C1220   1.394       .  A
C1219      O1224   1.372       .  S
C1220      C1221   1.405       .  A
C1220      H1225   1.084       .  S
C1221      C1222   1.411       .  A
C1222      O1226   1.372       .  S
C1223      C1228   1.404       .  A
C1223      C1232   1.399       .  A
O1224      H1240   0.992       .  S
O1226      H1237   0.992       .  S
C1228      C1229   1.396       .  A
C1228      O1233   1.372       .  S
C1229      C1230   1.406       .  A
C1229      H1234   1.083       .  S
C1230      C1231   1.411       .  A
C1231      C1232   1.394       .  A
C1231      O1235   1.372       .  S
C1232      H1236   1.084       .  S
O1233      H1238   0.992       .  S
O1235      H1239   0.992       .  S
C1241      C1242   1.403   1_545  A
C1241      C1246   1.402       .  A
C1241      H1251   1.083       .  S
C1242      C1247   1.485       .  S
C1242      C1243   1.408   1_565  A
C1243      C1244   1.401       .  A
C1243      O1248   1.371   1_545  S
C1244      C1245   1.406       .  A
C1244      H1249   1.083       .  S
C1245      C1246   1.414       .  A
C1246      O1250   1.372       .  S
C1247      C1252   1.407       .  A
C1247      C1256   1.405       .  A
O1248      H1264   0.992       .  S
O1250      H1261   0.992       .  S
C1252      C1253   1.401       .  A
C1252      O1257   1.372       .  S
C1253      C1254   1.407       .  A
C1253      H1258   1.084       .  S
C1254      C1255   1.411       .  A
C1255      C1256   1.403       .  A
C1255      O1259   1.372       .  S
C1256      H1260   1.084       .  S
O1257      H1262   0.992       .  S
O1259      H1263   0.992       .  S
C1265      C1266   1.404       .  A
C1265      C1270   1.400   1_545  A
C1265      H1275   1.084       .  S
C1266      C1271   1.481       .  S
C1266      C1267   1.410   1_545  A
C1267      C1268   1.400       .  A
C1267      O1272   1.372   1_554  S
C1268      C1269   1.403       .  A
C1268      H1273   1.084       .  S
C1269      C1270   1.409       .  A
C1270      O1274   1.372   1_565  S
C1271      C1276   1.409   1_554  A
C1271      C1280   1.401       .  A
O1272      H1288   0.991       .  S
O1274      H1285   0.992       .  S
C1276      C1277   1.404       .  A
C1276      O1281   1.371       .  S
C1277      C1278   1.406       .  A
C1277      H1282   1.083       .  S
C1278      C1279   1.408       .  A
C1279      C1280   1.394   1_556  A
C1279      O1283   1.372   1_556  S
C1280      H1284   1.084       .  S
O1281      H1286   0.992       .  S
O1283      H1287   0.992       .  S
C1289      C1290   1.397       .  A
C1289      C1294   1.390       .  A
C1289      H1299   1.084       .  S
C1290      C1295   1.464       .  S
C1290      C1291   1.402       .  A
C1291      C1292   1.398   1_554  A
C1291      O1296   1.372       .  S
C1292      C1293   1.410       .  A
C1292      H1297   1.083       .  S
C1293      C1294   1.413   1_556  A
C1294      O1298   1.372       .  S
C1295      C1300   1.402       .  A
C1295      C1304   1.400       .  A
O1296      H1312   0.992       .  S
O1298      H1309   0.992       .  S
C1300      C1301   1.387       .  A
C1300      O1305   1.373       .  S
C1301      C1302   1.404       .  A
C1301      H1306   1.083       .  S
C1302      C1303   1.414       .  A
C1303      C1304   1.400       .  A
C1303      O1307   1.372       .  S
C1304      H1308   1.084       .  S
O1305      H1310   0.992       .  S
O1307      H1311   0.992       .  S
C1313      C1314   1.398       .  A
C1313      C1318   1.397       .  A
C1313      H1323   1.084       .  S
C1314      C1319   1.467       .  S
C1314      C1315   1.404       .  A
C1315      C1316   1.399       .  A
C1315      O1320   1.371       .  S
C1316      C1317   1.404       .  A
C1316      H1321   1.084       .  S
C1317      C1318   1.413       .  A
C1318      O1322   1.372       .  S
C1319      C1324   1.402       .  A
C1319      C1328   1.398       .  A
O1320      H1336   0.992       .  S
O1322      H1333   0.992       .  S
C1324      C1325   1.400       .  A
C1324      O1329   1.371       .  S
C1325      C1326   1.409       .  A
C1325      H1330   1.083       .  S
C1326      C1327   1.414       .  A
C1327      C1328   1.395       .  A
C1327      O1331   1.372       .  S
C1328      H1332   1.084       .  S
O1329      H1334   0.992       .  S
O1331      H1335   0.992       .  S
C1337      C1338   1.401       .  A
C1337      C1342   1.398       .  A
C1337      H1347   1.084       .  S
C1338      C1343   1.481       .  S
C1338      C1339   1.406       .  A
C1339      C1340   1.402       .  A
C1339      O1344   1.373       .  S
C1340      C1341   1.409       .  A
C1340      H1345   1.083       .  S
C1341      C1342   1.415       .  A
C1342      O1346   1.372       .  S
C1343      C1348   1.406       .  A
C1343      C1352   1.403       .  A
O1344      H1360   0.992       .  S
O1346      H1357   0.992       .  S
C1348      C1349   1.398       .  A
C1348      O1353   1.372       .  S
C1349      C1350   1.410       .  A
C1349      H1354   1.083       .  S
C1350      C1351   1.414       .  A
C1351      C1352   1.401       .  A
C1351      O1355   1.371       .  S
C1352      H1356   1.084       .  S
O1353      H1358   0.992       .  S
O1355      H1359   0.992       .  S
C1361      C1362   1.402       .  A
C1361      C1366   1.398       .  A
C1361      H1371   1.084       .  S
C1362      C1367   1.483       .  S
C1362      C1363   1.408       .  A
C1363      C1364   1.405       .  A
C1363      O1368   1.372       .  S
C1364      C1365   1.408       .  A
C1364      H1369   1.083       .  S
C1365      C1366   1.412       .  A
C1366      O1370   1.372       .  S
C1367      C1372   1.406   1_655  A
C1367      C1376   1.403       .  A
O1368      H1384   0.992       .  S
O1370      H1381   0.992       .  S
C1372      C1373   1.401       .  A
C1372      O1377   1.372       .  S
C1373      C1374   1.412       .  A
C1373      H1378   1.083       .  S
C1374      C1375   1.414       .  A
C1375      C1376   1.401   1_455  A
C1375      O1379   1.371       .  S
C1376      H1380   1.084       .  S
O1377      H1382   0.992   1_455  S
O1379      H1383   0.992       .  S
C1385      C1386   1.405       .  A
C1385      C1390   1.404       .  A
C1385      H1395   1.083       .  S
C1386      C1391   1.483   1_456  S
C1386      C1387   1.409   1_556  A
C1387      C1388   1.397   1_554  A
C1387      O1392   1.372       .  S
C1388      C1389   1.402       .  A
C1388      H1393   1.084       .  S
C1389      C1390   1.410       .  A
C1390      O1394   1.372       .  S
C1391      C1396   1.408       .  A
C1391      C1400   1.405       .  A
O1392      H1408   0.992       .  S
O1394      H1405   0.992       .  S
C1396      C1397   1.399       .  A
C1396      O1401   1.372   1_554  S
C1397      C1398   1.404       .  A
C1397      H1402   1.083       .  S
C1398      C1399   1.410       .  A
C1399      C1400   1.403       .  A
C1399      O1403   1.371       .  S
C1400      H1404   1.084   1_655  S
O1401      H1406   0.992       .  S
O1403      H1407   0.992       .  S
C1409      C1410   1.404       .  A
C1409      C1414   1.403       .  A
C1409      H1419   1.083       .  S
C1410      C1415   1.487       .  S
C1410      C1411   1.410       .  A
C1411      C1412   1.396       .  A
C1411      O1416   1.372       .  S
C1412      C1413   1.407       .  A
C1412      H1417   1.083       .  S
C1413      C1414   1.414       .  A
C1414      O1418   1.371       .  S
C1415      C1420   1.412       .  A
C1415      C1424   1.403       .  A
O1416      H1432   0.992       .  S
O1418      H1429   0.992       .  S
C1420      C1421   1.404       .  A
C1420      O1425   1.371       .  S
C1421      C1422   1.403       .  A
C1421      H1426   1.084       .  S
C1422      C1423   1.410       .  A
C1423      C1424   1.397       .  A
C1423      O1427   1.372       .  S
C1424      H1428   1.084       .  S
O1425      H1430   0.992       .  S
O1427      H1431   0.991       .  S
C1433      C1434   1.402       .  A
C1433      C1438   1.401       .  A
C1433      H1443   1.084       .  S
C1434      C1439   1.470       .  S
C1434      C1435   1.402       .  A
C1435      C1436   1.392       .  A
C1435      O1440   1.372       .  S
C1436      C1437   1.408       .  A
C1436      H1441   1.084       .  S
C1437      C1438   1.412       .  A
C1438      O1442   1.372       .  S
C1439      C1444   1.404       .  A
C1439      C1448   1.402       .  A
O1440      H1456   0.992       .  S
O1442      H1453   0.992       .  S
C1444      C1445   1.393       .  A
C1444      O1449   1.372       .  S
C1445      C1446   1.403   1_554  A
C1445      H1450   1.084   1_554  S
C1446      C1447   1.409       .  A
C1447      C1448   1.400   1_556  A
C1447      O1451   1.372       .  S
C1448      H1452   1.084       .  S
O1449      H1454   0.992       .  S
O1451      H1455   0.992       .  S
C1457      C1458   1.401       .  A
C1457      C1462   1.395       .  A
C1457      H1467   1.084       .  S
C1458      C1463   1.465       .  S
C1458      C1459   1.403       .  A
C1459      C1460   1.395       .  A
C1459      O1464   1.371       .  S
C1460      C1461   1.405       .  A
C1460      H1465   1.084       .  S
C1461      C1462   1.408       .  A
C1462      O1466   1.372       .  S
C1463      C1468   1.402       .  A
C1463      C1472   1.399       .  A
O1464      H1480   0.992       .  S
O1466      H1477   0.992       .  S
C1468      C1469   1.395       .  A
C1468      O1473   1.372       .  S
C1469      C1470   1.408       .  A
C1469      H1474   1.083       .  S
C1470      C1471   1.412       .  A
C1471      C1472   1.397       .  A
C1471      O1475   1.372       .  S
C1472      H1476   1.084       .  S
O1473      H1478   0.992       .  S
O1475      H1479   0.992       .  S
C1481      C1482   1.400       .  A
C1481      C1486   1.391       .  A
C1481      H1491   1.082       .  S
C1482      C1487   1.486       .  S
C1482      C1483   1.413       .  A
C1483      C1484   1.404       .  A
C1483      O1488   1.372       .  S
C1484      C1485   1.406       .  A
C1484      H1489   1.083       .  S
C1485      C1486   1.415       .  A
C1486      O1490   1.372       .  S
C1487      C1492   1.410       .  A
C1487      C1496   1.404       .  A
O1488      H1504   0.992       .  S
O1490      H1501   0.992       .  S
C1492      C1493   1.397       .  A
C1492      O1497   1.373       .  S
C1493      C1494   1.406       .  A
C1493      H1498   1.083       .  S
C1494      C1495   1.414       .  A
C1495      C1496   1.400       .  A
C1495      O1499   1.372       .  S
C1496      H1500   1.083       .  S
O1497      H1502   0.992       .  S
O1499      H1503   0.992       .  S
