geometry optimzed in LAMMPS
_audit_creation_date              2020-11-30 
_audit_creation_method            'lammps2cif' 
_symmetry_space_group_name_H-M    'P1' 
_symmetry_Int_Tables_number       1 
_symmetry_cell_setting            triclinic 
loop_ 
_symmetry_equiv_pos_as_xyz 
  x,y,z 
_cell_length_a                    50.10004673130186 
_cell_length_b                    49.92052841636926 
_cell_length_c                    50.443551478051425 
_cell_angle_alpha                 89.9578129281328 
_cell_angle_beta                  89.96609597717814 
_cell_angle_gamma                 89.89834168541991 
loop_ 
_atom_site_label 
_atom_site_type_symbol 
_atom_site_fract_x 
_atom_site_fract_y 
_atom_site_fract_z 
_atom_site_charge 
Zn1        Zn  0.91126707  0.34993150  0.24438657     1.49720
Zn2        Zn  0.86138521  0.33211634  0.20923622     1.49360
Zn3        Zn  0.85994099  0.38865238  0.23992552     1.49110
Zn4        Zn  0.89916224  0.38139202  0.19307833     1.49480
O5          O  0.88256078  0.36281035  0.22166209    -1.84680
O6          O  0.90645224  0.31099276  0.25295548    -0.75310
O7          O  0.82212571  0.34025778  0.21388636    -0.75130
O8          O  0.86495704  0.38092471  0.27895100    -0.74650
O9          O  0.86871431  0.29903261  0.23312605    -0.75330
O10         O  0.90646929  0.36484107  0.28076584    -0.74930
O11         O  0.82130057  0.38079349  0.23208629    -0.75510
O12         O  0.89234474  0.42054968  0.19308509    -0.74900
O13         O  0.86692567  0.32774877  0.16862851    -0.75660
O14         O  0.86640579  0.42778375  0.22796971    -0.75050
O15         O  0.88524932  0.36760646  0.16016130    -0.75510
O16         O  0.93823065  0.37522909  0.19082746    -0.75420
O17         O  0.94868656  0.35578587  0.22894889    -0.75210
C18         C  0.88761087  0.29428945  0.24955867     0.76580
C19         C  0.80930040  0.36049600  0.22255489     0.77070
C20         C  0.88444910  0.37093094  0.29195269     0.76030
C21         C  0.87909026  0.43644501  0.20767790     0.76400
C22         C  0.87488486  0.34588686  0.15245456     0.77540
C23         C  0.95545186  0.36529056  0.20641876     0.76590
Zn24       Zn  0.91201056  0.34919826  0.49474657     1.49720
Zn25       Zn  0.86357241  0.33086496  0.45728914     1.49360
Zn26       Zn  0.85980454  0.38583563  0.49122759     1.49110
Zn27       Zn  0.89893716  0.38076333  0.44380433     1.49480
O28         O  0.88312134  0.36139083  0.47202771    -1.84680
O29         O  0.90781995  0.31013286  0.50230743    -0.75310
O30         O  0.82400362  0.33808486  0.46123951    -0.75130
O31         O  0.86534156  0.37821033  0.03010196    -0.74650
O32         O  0.87242875  0.29697906  0.47919397    -0.75330
O33         O  0.90713744  0.36307122  0.03166273    -0.74930
O34         O  0.82182746  0.37607126  0.48433630    -0.75510
O35         O  0.89261572  0.41954861  0.44606398    -0.74900
O36         O  0.86959854  0.32814854  0.41681449    -0.75660
O37         O  0.86387964  0.42514845  0.47910637    -0.75050
O38         O  0.88324255  0.37008321  0.41044030    -0.75510
O39         O  0.93769158  0.37387462  0.44009230    -0.75420
O40         O  0.94899613  0.35615286  0.47892566    -0.75210
C41         C  0.89043452  0.29250253  0.49669378     0.76580
C42         C  0.81068100  0.35672845  0.47232880     0.77070
C43         C  0.88504322  0.36858135  0.04300572     0.76030
C44         C  0.87763153  0.43454238  0.45987422     0.76400
C45         C  0.87475696  0.34800570  0.40160804     0.77540
C46         C  0.95516776  0.36487945  0.45592860     0.76590
Zn47       Zn  0.86104983  0.14211350  0.06677256     1.49720
Zn48       Zn  0.90122796  0.16172357  0.11055371     1.49360
Zn49       Zn  0.86075743  0.11266223  0.11829077     1.49110
Zn50       Zn  0.90924721  0.10609081  0.07818484     1.49480
O51         O  0.88393659  0.13075600  0.09455976    -1.84680
O52         O  0.87189049  0.17769963  0.05362020    -0.75310
O53         O  0.88990379  0.16414421  0.14983683    -0.75130
O54         O  0.82217726  0.12041079  0.11290633    -0.74650
O55         O  0.89669743  0.19527281  0.08576650    -0.75330
O56         O  0.82315417  0.14426019  0.07599180    -0.74930
O57         O  0.86928823  0.12472048  0.15370115    -0.75510
O58         O  0.90039912  0.06688477  0.08934418    -0.74900
O59         O  0.94033293  0.15320994  0.11458935    -0.75660
O60         O  0.86645958  0.07356212  0.11713290    -0.75050
O61         O  0.94584387  0.11450751  0.09333550    -0.75510
O62         O  0.90753968  0.11424121  0.03776127    -0.75420
O63         O  0.86369549  0.11632979  0.03782790    -0.75210
C64         C  0.88517867  0.19712709  0.06305573     0.76580
C65         C  0.87968508  0.14539427  0.16393664     0.77070
C66         C  0.81040574  0.13367784  0.09492024     0.76030
C67         C  0.88282979  0.05800340  0.10560736     0.76400
C68         C  0.95490669  0.13343626  0.10779773     0.77540
C69         C  0.88550605  0.11752830  0.02533791     0.76590
Zn70       Zn  0.86322305  0.16389222  0.36166232     1.49720
Zn71       Zn  0.91324827  0.14852886  0.32443740     1.49360
Zn72       Zn  0.90195155  0.11379446  0.37299090     1.49110
Zn73       Zn  0.86090644  0.11047855  0.32635404     1.49480
O74         O  0.88427858  0.13438742  0.34629883    -1.84680
O75         O  0.86978950  0.19826564  0.33894448    -0.75310
O76         O  0.95076649  0.14344398  0.33980560    -0.75130
O77         O  0.89008496  0.12581598  0.40724300    -0.74650
O78         O  0.90702139  0.18733191  0.31739491    -0.75330
O79         O  0.87081048  0.16584034  0.40219553    -0.74930
O80         O  0.94106914  0.11894766  0.37505323    -0.75510
O81         O  0.86366757  0.07128082  0.33922670    -0.74900
O82         O  0.91027148  0.13454492  0.28754920    -0.75660
O83         O  0.89393170  0.07520736  0.37115216    -0.75050
O84         O  0.86966637  0.11632318  0.28778651    -0.75510
O85         O  0.82216677  0.12107147  0.33073571    -0.77020
O86         O  0.82347371  0.15570510  0.35840055    -0.75210
C87         C  0.88820257  0.20376830  0.32213114     0.76580
C88         C  0.95790705  0.13134980  0.36092635     0.77070
C89         C  0.88003468  0.14693236  0.41680522     0.76030
C90         C  0.87781343  0.06109560  0.35776492     0.76400
C91         C  0.88957411  0.12629305  0.27542339     0.77540
C92         C  0.81041384  0.13875214  0.34469239     0.76590
Zn93       Zn  0.35625171  0.40685986  0.05862293     1.49720
Zn94       Zn  0.39330704  0.35485548  0.05393636     1.49360
Zn95       Zn  0.33771339  0.35824727  0.02128377     1.49110
Zn96       Zn  0.38837592  0.39485968  0.00752286     1.49480
O97         O  0.36855979  0.37834453  0.03526752    -1.84680
O98         O  0.37253838  0.40243428  0.09454051    -0.75310
O99         O  0.38420382  0.31677846  0.04588467    -0.75130
O100        O  0.30375148  0.36695639  0.04324577    -0.74650
O101        O  0.38514776  0.35969635  0.09277987    -0.75330
O102        O  0.31808808  0.40042119  0.06866125    -0.74930
O103        O  0.34451311  0.31840819  0.02624816    -0.75510
O104        O  0.37453058  0.38316776  0.47363896    -0.74900
O105        O  0.43268568  0.35942839  0.04260822    -0.75660
O106        O  0.33501980  0.36387632  0.48064457    -0.75050
O107        O  0.42647846  0.38556237  0.00764930    -0.75510
O108        O  0.38557732  0.43425454  0.00724247    -0.75420
O109        O  0.36157527  0.44458697  0.04269910    -0.75210
C110        C  0.37641197  0.37983421  0.10572590     0.76580
C111        C  0.36412919  0.30514538  0.03564592     0.77070
C112        C  0.30023071  0.38356873  0.06226531     0.76030
C113        C  0.35331230  0.37254437  0.46511887     0.76400
C114        C  0.44173377  0.37167008  0.02223367     0.77540
C115        C  0.37418100  0.45155792  0.02174123     0.76590
Zn116      Zn  0.33491295  0.35711320  0.27076549     1.49720
Zn117      Zn  0.39090149  0.35479821  0.30345685     1.49360
Zn118      Zn  0.38575345  0.39312184  0.25624347     1.49110
Zn119      Zn  0.35326759  0.40641264  0.30694283     1.49480
O120        O  0.36582562  0.37747475  0.28433141    -1.84680
O121        O  0.34203137  0.31766105  0.27675677    -0.75310
O122        O  0.43034315  0.35974530  0.29234999    -0.75130
O123        O  0.37103688  0.38171826  0.22281813    -0.74650
O124        O  0.38191249  0.31635981  0.29616071    -0.75330
O125        O  0.33206287  0.36152035  0.22997852    -0.74930
O126        O  0.42344429  0.38210899  0.25504918    -0.75510
O127        O  0.35715752  0.44354979  0.28938105    -0.74900
O128        O  0.38332360  0.36076399  0.34214128    -0.75660
O129        O  0.38385455  0.43258415  0.25589417    -0.75050
O130        O  0.36965507  0.40322925  0.34315074    -0.75510
O131        O  0.31552108  0.39967016  0.31734688    -0.75420
O132        O  0.30082186  0.36603310  0.29245703    -0.75210
C133        C  0.36170951  0.30458903  0.28626186     0.76580
C134        C  0.43893251  0.36961166  0.27057653     0.77070
C135        C  0.35012502  0.37050075  0.21438213     0.76030
C136        C  0.37100520  0.44996272  0.26906232     0.76400
C137        C  0.37468538  0.38109409  0.35484510     0.77540
C138        C  0.29755393  0.38282469  0.31135958     0.76590
Zn139      Zn  0.11869578  0.39401676  0.18610654     1.49720
Zn140      Zn  0.11315535  0.35578979  0.13902234     1.49360
Zn141      Zn  0.15066944  0.40709445  0.13471206     1.49110
Zn142      Zn  0.16948055  0.35796999  0.17111481     1.49480
O143        O  0.13842873  0.37840113  0.15775468    -1.84680
O144        O  0.08086431  0.38325023  0.18756672    -0.75310
O145        O  0.12048931  0.36084625  0.10018330    -0.75130
O146        O  0.14518998  0.44432392  0.15137386    -0.74650
O147        O  0.07388578  0.36122452  0.15012975    -0.75330
O148        O  0.12083680  0.43346250  0.18650611    -0.74930
O149        O  0.13504913  0.40294091  0.09835897    -0.75510
O150        O  0.20337255  0.36666841  0.14894339    -0.74900
O151        O  0.12179808  0.31749719  0.14703155    -0.75660
O152        O  0.18894052  0.40113531  0.12493153    -0.75050
O153        O  0.16201439  0.31850594  0.16575353    -0.75510
O154        O  0.17289559  0.36272299  0.21184734    -0.75420
O155        O  0.13377338  0.38260081  0.21942430    -0.75210
C156        C  0.06532292  0.37098814  0.17194924     0.76580
C157        C  0.12949868  0.38075008  0.08711509     0.77070
C158        C  0.13249356  0.45092821  0.17239812     0.76030
C159        C  0.20685301  0.38395599  0.13048827     0.76400
C160        C  0.14200257  0.30559251  0.15683956     0.77540
C161        C  0.15495085  0.37163339  0.22764501     0.76590
Zn162      Zn  0.11726351  0.39483247  0.43479613     1.49720
Zn163      Zn  0.11230643  0.35551857  0.38807780     1.49360
Zn164      Zn  0.14880070  0.40777807  0.38382518     1.49110
Zn165      Zn  0.16778389  0.35895325  0.42100505     1.49480
O166        O  0.13691919  0.37890395  0.40687538    -1.84680
O167        O  0.07918212  0.38667357  0.43371895    -0.75310
O168        O  0.12083883  0.36053917  0.34937510    -0.75130
O169        O  0.14360552  0.44539999  0.40045650    -0.74650
O170        O  0.07276788  0.36072936  0.39877431    -0.75330
O171        O  0.12129155  0.43402474  0.43666007    -0.74930
O172        O  0.13267461  0.40346931  0.34770314    -0.75510
O173        O  0.20167782  0.36791248  0.39926953    -0.74900
O174        O  0.12142457  0.31727549  0.39629864    -0.75660
O175        O  0.18684987  0.40119218  0.37377133    -0.75050
O176        O  0.16130817  0.31923497  0.41557025    -0.75510
O177        O  0.17017064  0.36394721  0.46176322    -0.75420
O178        O  0.12961503  0.38108987  0.46839714    -0.75210
C179        C  0.06378141  0.37309216  0.41910758     0.76580
C180        C  0.12924911  0.38082692  0.33646514     0.77070
C181        C  0.13205080  0.45176274  0.42221507     0.76030
C182        C  0.20487516  0.38440987  0.38008801     0.76400
C183        C  0.14178857  0.30581873  0.40631534     0.77540
C184        C  0.15102830  0.37098899  0.47710089     0.76590
Zn185      Zn  0.14797300  0.61630623  0.19757951     1.49720
Zn186      Zn  0.09956677  0.60630770  0.23709899     1.49360
Zn187      Zn  0.14736511  0.64620064  0.24845499     1.49110
Zn188      Zn  0.10281509  0.66181281  0.20537891     1.49480
O189        O  0.12380165  0.63283320  0.22182201    -1.84680
O190        O  0.14520357  0.57695492  0.19900935    -0.75310
O191        O  0.09859353  0.61276267  0.27714878    -0.75130
O192        O  0.18674892  0.64411175  0.24096221    -0.74650
O193        O  0.11147652  0.56832676  0.22631263    -0.75330
O194        O  0.18689019  0.62649681  0.20085584    -0.74930
O195        O  0.14002642  0.62821997  0.28202488    -0.75510
O196        O  0.10669675  0.69702010  0.22824098    -0.74900
O197        O  0.06220779  0.61074847  0.22195773    -0.75660
O198        O  0.13839147  0.68372221  0.25618632    -0.75050
O199        O  0.06380143  0.65063443  0.20240837    -0.75510
O200        O  0.11105135  0.66270868  0.16546404    -0.75420
O201        O  0.13411713  0.62461693  0.16287341    -0.75210
C202        C  0.12944310  0.56046242  0.21000772     0.76580
C203        C  0.11789407  0.62065252  0.29168762     0.77070
C204        C  0.19936737  0.63639481  0.22049871     0.76030
C205        C  0.12197252  0.70137307  0.24828284     0.76400
C206        C  0.05123552  0.62928058  0.20838961     0.77540
C207        C  0.11989744  0.64265387  0.15224562     0.76590
Zn208      Zn  0.14412833  0.61794627  0.44996566     1.49720
Zn209      Zn  0.09521870  0.60696491  0.48687693     1.49360
Zn210      Zn  0.14072852  0.65049909  0.49980838     1.49110
Zn211      Zn  0.09909353  0.66343491  0.45429484     1.49480
O212        O  0.11898942  0.63474095  0.47278060    -1.84680
O213        O  0.14143095  0.57851514  0.44932057    -0.75310
O214        O  0.09293127  0.61140980  0.02719127    -0.75130
O215        O  0.18017335  0.64391397  0.49705455    -0.74650
O216        O  0.10717633  0.56899557  0.47546959    -0.75330
O217        O  0.18184367  0.62781863  0.45624817    -0.74930
O218        O  0.12728144  0.63900153  0.03391755    -0.75510
O219        O  0.10140454  0.69944554  0.47536942    -0.74900
O220        O  0.05853140  0.61269382  0.47085126    -0.75660
O221        O  0.13485839  0.68939561  0.00258029    -0.75050
O222        O  0.06076964  0.65303797  0.45223504    -0.75510
O223        O  0.10818051  0.66323764  0.41421154    -0.75420
O224        O  0.13486087  0.62770920  0.41460248    -0.75210
C225        C  0.12555675  0.56160995  0.45942660     0.76580
C226        C  0.10768465  0.62550989  0.04239114     0.77070
C227        C  0.19341034  0.63646584  0.47688217     0.76030
C228        C  0.11744886  0.70576739  0.49412445     0.76400
C229        C  0.04787655  0.63185795  0.45781178     0.77540
C230        C  0.12118897  0.64483797  0.40211911     0.76590
Zn231      Zn  0.14481663  0.85201204  0.06644542     1.49720
Zn232      Zn  0.10155589  0.83483518  0.10973933     1.49360
Zn233      Zn  0.14523947  0.88069778  0.11809138     1.49110
Zn234      Zn  0.09794122  0.89026606  0.07677710     1.49480
O235        O  0.12162676  0.86427804  0.09380166    -1.84680
O236        O  0.13329138  0.81636033  0.05484973    -0.75310
O237        O  0.11228585  0.83123610  0.14944296    -0.75130
O238        O  0.18381302  0.87190353  0.11341470    -0.74650
O239        O  0.10359299  0.80127381  0.08421277    -0.75330
O240        O  0.18304800  0.85025702  0.07521755    -0.74930
O241        O  0.13546264  0.86909701  0.15311032    -0.75510
O242        O  0.11002230  0.92875536  0.08684827    -0.74900
O243        O  0.06343191  0.84721348  0.11431910    -0.75660
O244        O  0.14063469  0.91965748  0.11750942    -0.75050
O245        O  0.06068810  0.88600318  0.09268721    -0.75510
O246        O  0.09841857  0.88023929  0.03673755    -0.75420
O247        O  0.14207198  0.87607179  0.03605837    -0.75210
C248        C  0.11736573  0.79832647  0.06285452     0.76580
C249        C  0.12353126  0.84940141  0.16353443     0.77070
C250        C  0.19568052  0.85970359  0.09478000     0.76030
C251        C  0.12640372  0.93637903  0.10487163     0.76400
C252        C  0.05047993  0.86820647  0.10780445     0.77540
C253        C  0.11995468  0.87486634  0.02413635     0.76590
Zn254      Zn  0.14027049  0.88663266  0.32580306     1.49720
Zn255      Zn  0.08913137  0.84855173  0.32342380     1.49360
Zn256      Zn  0.13916510  0.83167643  0.35986810     1.49110
Zn257      Zn  0.10151721  0.88173686  0.37360062     1.49480
O258        O  0.11805069  0.86185765  0.34574874    -1.84680
O259        O  0.13225537  0.88029251  0.28718205    -0.75310
O260        O  0.09535217  0.81027284  0.31428460    -0.75130
O261        O  0.17870328  0.84018992  0.35557105    -0.74650
O262        O  0.09099607  0.86388284  0.28691586    -0.75330
O263        O  0.17906521  0.87699002  0.33072042    -0.74930
O264        O  0.13188640  0.79825739  0.33629032    -0.75510
O265        O  0.11071896  0.86597904  0.40701213    -0.74900
O266        O  0.05242767  0.85301792  0.33995704    -0.75660
O267        O  0.13238956  0.82758497  0.40056195    -0.75050
O268        O  0.06212205  0.87923815  0.37407794    -0.75510
O269        O  0.11345597  0.91940308  0.37560374    -0.75420
O270        O  0.13635973  0.92578056  0.33844422    -0.75210
C271        C  0.11213001  0.87092094  0.27477423     0.76580
C272        C  0.11394954  0.79354804  0.31875475     0.77070
C273        C  0.19136050  0.85844539  0.34308651     0.76030
C274        C  0.12143768  0.84491218  0.41587004     0.76400
C275        C  0.04537392  0.86606740  0.36051939     0.77540
C276        C  0.12667280  0.93452819  0.36025603     0.76590
Zn277      Zn  0.66792098  0.63522270  0.02122635     1.49720
Zn278      Zn  0.65009740  0.58670179  0.05868949     1.49360
Zn279      Zn  0.61221114  0.63834151  0.05338115     1.49110
Zn280      Zn  0.61731534  0.59696429  0.00797139     1.49480
O281        O  0.63718853  0.61476292  0.03506742    -1.84680
O282        O  0.70212714  0.62645727  0.04310559    -0.75310
O283        O  0.63301812  0.59092467  0.09415602    -0.75130
O284        O  0.62088670  0.67669085  0.04485914    -0.74650
O285        O  0.68820174  0.59288593  0.06841063    -0.75330
O286        O  0.66098515  0.67518939  0.02598810    -0.74930
O287        O  0.62070538  0.63374259  0.09230388    -0.75510
O288        O  0.57900593  0.60683251  0.00716039    -0.74900
O289        O  0.64640714  0.54894964  0.04337994    -0.75660
O290        O  0.57278438  0.63301888  0.04207558    -0.75050
O291        O  0.62011908  0.55738598  0.00897585    -0.75510
O292        O  0.63250019  0.60668464  0.47403087    -0.75420
O293        O  0.67051090  0.62897081  0.48067575    -0.75210
C294        C  0.70614755  0.60957554  0.06186949     0.76580
C295        C  0.62936936  0.61356184  0.10528967     0.77070
C296        C  0.64110374  0.68841312  0.03491001     0.76030
C297        C  0.56369353  0.62078619  0.02170595     0.76400
C298        C  0.63318677  0.54112301  0.02324992     0.77540
C299        C  0.65329992  0.61805636  0.46533639     0.76590
Zn300      Zn  0.65318703  0.59019236  0.30619623     1.49720
Zn301      Zn  0.67113476  0.63947031  0.26945394     1.49360
Zn302      Zn  0.62001302  0.60340425  0.25649063     1.49110
Zn303      Zn  0.61709893  0.64185502  0.30423902     1.49480
O304        O  0.64074199  0.61912625  0.28381931    -1.84680
O305        O  0.69048289  0.59794191  0.31709915    -0.75310
O306        O  0.67422885  0.63316698  0.22899186    -0.75130
O307        O  0.62060232  0.56364488  0.25675595    -0.74650
O308        O  0.70479519  0.63170066  0.29197024    -0.75330
O309        O  0.64970624  0.55331880  0.28841303    -0.74930
O310        O  0.63496065  0.61324524  0.22262483    -0.75510
O311        O  0.57761015  0.63682931  0.29473205    -0.74900
O312        O  0.66351525  0.67912333  0.27374396    -0.75660
O313        O  0.58289067  0.61612640  0.25610766    -0.75050
O314        O  0.62557610  0.68026021  0.29658566    -0.75510
O315        O  0.62594879  0.63551008  0.34252558    -0.75420
O316        O  0.63584298  0.59210895  0.34202632    -0.75210
C317        C  0.70804027  0.61528530  0.31122244     0.76580
C318        C  0.65615003  0.62364048  0.21376896     0.77070
C319        C  0.63461656  0.54656792  0.26915011     0.76030
C320        C  0.56828799  0.62810310  0.27283729     0.76400
C321        C  0.64457053  0.69216363  0.28467251     0.77540
C322        C  0.63294122  0.61414896  0.35451312     0.76590
Zn323      Zn  0.83930763  0.59843232  0.17321847     1.49720
Zn324      Zn  0.89535612  0.59380141  0.14047073     1.49360
Zn325      Zn  0.85590034  0.64187312  0.13190567     1.49110
Zn326      Zn  0.88834686  0.63953139  0.18234031     1.49480
O327        O  0.86971078  0.61754003  0.15775308    -1.84680
O328        O  0.84973139  0.55959439  0.17607543    -0.75310
O329        O  0.88605263  0.59645685  0.10065457    -0.75130
O330        O  0.82004343  0.63122559  0.11951677    -0.74650
O331        O  0.88869225  0.55598528  0.15506115    -0.75330
O332        O  0.80511001  0.60199341  0.14910383    -0.74930
O333        O  0.87863796  0.64014326  0.10031926    -0.75510
O334        O  0.88585934  0.67864400  0.17449079    -0.74900
O335        O  0.93477256  0.60379095  0.15048903    -0.75660
O336        O  0.85440438  0.67968967  0.14363889    -0.75050
O337        O  0.92655499  0.63004292  0.18510608    -0.75510
O338        O  0.87302392  0.63326683  0.21714497    -0.75420
O339        O  0.83601882  0.60886361  0.21265263    -0.75210
C340        C  0.87004115  0.54583297  0.16921104     0.76580
C341        C  0.87977455  0.61794743  0.08820466     0.77070
C342        C  0.80189432  0.61556405  0.12767756     0.76030
C343        C  0.86995162  0.69151010  0.15959323     0.76400
C344        C  0.94279405  0.61692627  0.17082107     0.77540
C345        C  0.85305089  0.62130485  0.22701827     0.76590
Zn346      Zn  0.85322525  0.58805058  0.38503055     1.49720
Zn347      Zn  0.88702592  0.59715740  0.43387911     1.49360
Zn348      Zn  0.89114087  0.63933815  0.38888661     1.49110
Zn349      Zn  0.83691499  0.63664535  0.42355424     1.49480
O350        O  0.86677905  0.61602269  0.40808041    -1.84680
O351        O  0.85413900  0.55032819  0.40136729    -0.75310
O352        O  0.92481587  0.60677602  0.43397437    -0.75130
O353        O  0.88332652  0.63258985  0.35023169    -0.74650
O354        O  0.88470643  0.55787533  0.43216435    -0.75330
O355        O  0.87097047  0.58978219  0.34963172    -0.74930
O356        O  0.93043463  0.63409347  0.39980751    -0.75510
O357        O  0.84419581  0.67658971  0.41896940    -0.74900
O358        O  0.87304418  0.60562266  0.46838035    -0.75660
O359        O  0.88228855  0.67815445  0.39635783    -0.75050
O360        O  0.83556313  0.62938946  0.46420905    -0.75510
O361        O  0.80231819  0.62956190  0.40182392    -0.75420
O362        O  0.81659168  0.59776410  0.37431320    -0.75210
C363        C  0.86943495  0.54205474  0.41984456     0.76580
C364        C  0.93979421  0.62111378  0.41958534     0.77070
C365        C  0.87539550  0.61184794  0.33770102     0.76030
C366        C  0.86296177  0.68987276  0.40803308     0.76400
C367        C  0.85303502  0.61726361  0.47843543     0.77540
C368        C  0.79899028  0.61454156  0.38150376     0.76590
Zn369      Zn  0.64783026  0.90663595  0.00828094     1.49720
Zn370      Zn  0.61111123  0.85417139  0.01285189     1.49360
Zn371      Zn  0.66627559  0.85775946  0.04579178     1.49110
Zn372      Zn  0.61546660  0.89515526  0.05865320     1.49480
O373        O  0.63552270  0.87799468  0.03147267    -1.84680
O374        O  0.63161414  0.90228813  0.47232570    -0.75310
O375        O  0.62050627  0.81586313  0.02086700    -0.75130
O376        O  0.70003008  0.86584516  0.02340548    -0.74650
O377        O  0.61864737  0.85962688  0.47394702    -0.75330
O378        O  0.68572095  0.89954659  0.99817097    -0.74930
O379        O  0.65955527  0.81773904  0.04166531    -0.75510
O380        O  0.63040979  0.88554089  0.09260611    -0.74900
O381        O  0.57179304  0.85871971  0.02415600    -0.75660
O382        O  0.66927884  0.86464919  0.08616231    -0.75050
O383        O  0.57771367  0.88497114  0.05904973    -0.75510
O384        O  0.61694679  0.93461793  0.05812846    -0.75420
O385        O  0.64293113  0.94468810  0.02409803    -0.75210
C386        C  0.62710219  0.87989403  0.46101276     0.76580
C387        C  0.64034078  0.80431569  0.03178370     0.77070
C388        C  0.70342545  0.88233954  0.00424932     0.76030
C389        C  0.65159288  0.87498321  0.10139889     0.76400
C390        C  0.56262203  0.87100213  0.04444046     0.77540
C391        C  0.62922223  0.95183439  0.04431575     0.76590
Zn392      Zn  0.66841490  0.86077499  0.29520663     1.49720
Zn393      Zn  0.61276069  0.85706400  0.26270062     1.49360
Zn394      Zn  0.61691376  0.89652779  0.30896731     1.49110
Zn395      Zn  0.64990829  0.90933939  0.25859861     1.49480
O396        O  0.63733543  0.88054448  0.28137279    -1.84680
O397        O  0.66252520  0.82109017  0.28917198    -0.75310
O398        O  0.57303005  0.86193318  0.27329010    -0.75130
O399        O  0.62935105  0.88262558  0.34258377    -0.74650
O400        O  0.62204846  0.81889345  0.27107310    -0.75330
O401        O  0.66985937  0.86511907  0.33607390    -0.74930
O402        O  0.57837161  0.88891253  0.30763624    -0.75510
O403        O  0.64583713  0.94642217  0.27568928    -0.74900
O404        O  0.62115629  0.86263188  0.22400984    -0.75660
O405        O  0.62114004  0.93570772  0.31067605    -0.75050
O406        O  0.63284985  0.90567100  0.22291830    -0.75510
O407        O  0.68818843  0.90377595  0.24865690    -0.75420
O408        O  0.70275227  0.87061133  0.27416038    -0.75210
C409        C  0.64276115  0.80762325  0.28055689     0.76580
C410        C  0.56339458  0.87488460  0.29296943     0.77070
C411        C  0.65062855  0.87218960  0.35131453     0.76030
C412        C  0.63334613  0.95294003  0.29679094     0.76400
C413        C  0.62910986  0.88326637  0.21131969     0.77540
C414        C  0.70650605  0.88750555  0.25537271     0.76590
Zn415      Zn  0.89631711  0.90361732  0.17868737     1.49720
Zn416      Zn  0.85709567  0.85581157  0.18716812     1.49360
Zn417      Zn  0.84104750  0.89890000  0.14525698     1.49110
Zn418      Zn  0.89025281  0.85740273  0.13732532     1.49480
O419        O  0.87111186  0.87971233  0.16122030    -1.84680
O420        O  0.88541727  0.90207019  0.21824230    -0.75310
O421        O  0.82116053  0.86673238  0.19899222    -0.75130
O422        O  0.85188576  0.93765297  0.14206453    -0.74650
O423        O  0.87967363  0.85821115  0.21873188    -0.75330
O424        O  0.89125624  0.94079902  0.16232223    -0.74930
O425        O  0.80645060  0.89569175  0.16899651    -0.75510
O426        O  0.87575585  0.86379557  0.10225807    -0.74900
O427        O  0.85563888  0.81790254  0.17588992    -0.75660
O428        O  0.83844150  0.88797190  0.10583585    -0.75050
O429        O  0.88734800  0.81826912  0.14524086    -0.75510
O430        O  0.92842670  0.86694339  0.13529479    -0.75420
O431        O  0.93566616  0.89334303  0.17004938    -0.75210
C432        C  0.87914032  0.88054902  0.23062188     0.76580
C433        C  0.80304481  0.88230612  0.19051382     0.77070
C434        C  0.87274100  0.95095983  0.14805708     0.76030
C435        C  0.85593147  0.87560552  0.09185265     0.76400
C436        C  0.87113455  0.80574615  0.16008418     0.77540
C437        C  0.94412897  0.88029765  0.14985835     0.76590
Zn438      Zn  0.84991462  0.90812658  0.43148621     1.49720
Zn439      Zn  0.88466718  0.89760427  0.38334467     1.49360
Zn440      Zn  0.88851673  0.85698733  0.42883487     1.49110
Zn441      Zn  0.83425747  0.85874414  0.39382261     1.49480
O442        O  0.86389165  0.87961125  0.40930034    -1.84680
O443        O  0.85230650  0.94537265  0.41410904    -0.75310
O444        O  0.92123630  0.88386081  0.38023356    -0.75130
O445        O  0.88168580  0.86459709  0.46731291    -0.74650
O446        O  0.88603916  0.93699088  0.38688588    -0.75330
O447        O  0.86636462  0.90654266  0.46763467    -0.74930
O448        O  0.92771011  0.86171381  0.41776968    -0.75510
O449        O  0.84239543  0.81883472  0.39831089    -0.74900
O450        O  0.86857913  0.89193474  0.34928671    -0.75660
O451        O  0.87988931  0.81810036  0.42195327    -0.75050
O452        O  0.83228822  0.86655589  0.35321603    -0.75510
O453        O  0.79961454  0.86574871  0.41563842    -0.75420
O454        O  0.81269202  0.89935337  0.44152059    -0.75210
C455        C  0.86970591  0.95326428  0.39734959     0.76580
C456        C  0.93637014  0.87103103  0.39582444     0.77070
C457        C  0.87305967  0.88513225  0.47975081     0.76030
C458        C  0.86117440  0.80596864  0.40980533     0.76400
C459        C  0.84883156  0.88005689  0.33914384     0.77540
C460        C  0.79555888  0.88187317  0.43499118     0.76590
Zn461      Zn  0.64628906  0.11728424  0.07134508     1.49720
Zn462      Zn  0.64612789  0.14590134  0.12375401     1.49360
Zn463      Zn  0.60443776  0.16508392  0.08064777     1.49110
Zn464      Zn  0.59878795  0.10836698  0.11189058     1.49480
O465        O  0.62312664  0.13429408  0.09596180    -1.84680
O466        O  0.68483321  0.12412988  0.07734127    -0.75310
O467        O  0.63531902  0.18165351  0.13667791    -0.75130
O468        O  0.61475275  0.16867745  0.04110309    -0.74650
O469        O  0.68422235  0.14705443  0.11485191    -0.75330
O470        O  0.63793424  0.13078993  0.03653531    -0.74930
O471        O  0.60850444  0.19844417  0.10568016    -0.75510
O472        O  0.56180294  0.11580230  0.09692268    -0.74900
O473        O  0.64331900  0.12086328  0.15327297    -0.75660
O474        O  0.56548814  0.15556301  0.07724871    -0.75050
O475        O  0.59970292  0.11606696  0.15235889    -0.75510
O476        O  0.60899728  0.06963450  0.10000494    -0.75420
O477        O  0.64035265  0.07832170  0.07005683    -0.75210
C478        C  0.69678823  0.13650214  0.09576971     0.76580
C479        C  0.62090993  0.20063923  0.12788551     0.77070
C480        C  0.62621475  0.15093942  0.02666918     0.76030
C481        C  0.55178085  0.13499395  0.08337968     0.76400
C482        C  0.62116707  0.12093898  0.16521578     0.77540
C483        C  0.62529920  0.06180026  0.08194723     0.76590
Zn484      Zn  0.64488488  0.11051741  0.36575015     1.49720
Zn485      Zn  0.64192280  0.16322916  0.32980003     1.49360
Zn486      Zn  0.60323822  0.11311163  0.31932400     1.49110
Zn487      Zn  0.59249212  0.14744992  0.36780142     1.49480
O488        O  0.62124157  0.13376328  0.34552581    -1.84680
O489        O  0.68349759  0.12083825  0.36035165    -0.75310
O490        O  0.63287571  0.16554058  0.28951516    -0.75130
O491        O  0.61169779  0.07465741  0.32157204    -0.74650
O492        O  0.68178031  0.15492349  0.33202074    -0.75330
O493        O  0.64159987  0.07115238  0.35400348    -0.74930
O494        O  0.61378174  0.12546529  0.28479055    -0.75510
O495        O  0.55501351  0.14377042  0.35244382    -0.74900
O496        O  0.63603815  0.19722100  0.35326715    -0.75660
O497        O  0.56407146  0.11819721  0.31780795    -0.75050
O498        O  0.59960442  0.18556882  0.37573159    -0.75510
O499        O  0.59481098  0.13247203  0.40434267    -0.75420
O500        O  0.63683205  0.11789517  0.40422929    -0.75210
C501        C  0.69507361  0.13821174  0.34589288     0.76580
C502        C  0.62302353  0.14686752  0.27504961     0.77070
C503        C  0.62758241  0.06075703  0.33552653     0.76030
C504        C  0.54757766  0.13136744  0.33166984     0.76400
C505        C  0.61818946  0.20213623  0.37085610     0.77540
C506        C  0.61636055  0.12682050  0.41648982     0.76590
Zn507      Zn  0.59240915  0.35262007  0.19598392     1.49720
Zn508      Zn  0.64097254  0.33467833  0.23343982     1.49360
Zn509      Zn  0.64436837  0.38963157  0.20008231     1.49110
Zn510      Zn  0.60423361  0.38505332  0.24613252     1.49480
O511        O  0.62094203  0.36515125  0.21879741    -1.84680
O512        O  0.59773550  0.31388433  0.18779095    -0.75310
O513        O  0.68073221  0.34117987  0.22830371    -0.75130
O514        O  0.63964871  0.38065030  0.16143132    -0.74650
O515        O  0.63185305  0.30020759  0.21246341    -0.75330
O516        O  0.59714454  0.36772582  0.15961153    -0.74930
O517        O  0.68243383  0.38096675  0.20858236    -0.75510
O518        O  0.60953113  0.42414405  0.24324029    -0.74900
O519        O  0.63556343  0.33348700  0.27414406    -0.75660
O520        O  0.63918534  0.42908426  0.21094039    -0.75050
O521        O  0.62063842  0.37525222  0.27934716    -0.75510
O522        O  0.56561239  0.37698384  0.25016050    -0.75420
O523        O  0.55509627  0.35769190  0.21200516    -0.75210
C524        C  0.61454996  0.29594643  0.19424544     0.76580
C525        C  0.69400401  0.36084106  0.21898907     0.77070
C526        C  0.61974881  0.37146544  0.14855217     0.76030
C527        C  0.62482827  0.43889505  0.22951706     0.76400
C528        C  0.63009240  0.35375225  0.28876128     0.77540
C529        C  0.54844586  0.36661861  0.23481030     0.76590
Zn530      Zn  0.59487878  0.34498005  0.44897220     1.49720
Zn531      Zn  0.64475256  0.32953178  0.48478647     1.49360
Zn532      Zn  0.64562385  0.38518248  0.45216144     1.49110
Zn533      Zn  0.60588473  0.37822923  0.49909735     1.49480
O534        O  0.62320295  0.35941064  0.47108837    -1.84680
O535        O  0.59951004  0.30579866  0.44338031    -0.75310
O536        O  0.68363628  0.33879026  0.48149260    -0.75130
O537        O  0.63873783  0.38029974  0.41323330    -0.74650
O538        O  0.63903886  0.29615520  0.46093733    -0.75330
O539        O  0.60086360  0.35683415  0.41167006    -0.74930
O540        O  0.68435946  0.37594861  0.45713839    -0.75510
O541        O  0.61310425  0.41703430  0.99909426    -0.74900
O542        O  0.63868184  0.32527660  0.02513465    -0.75660
O543        O  0.64106117  0.42387895  0.46569174    -0.75050
O544        O  0.61902397  0.36472833  0.03243109    -0.75510
O545        O  0.56675684  0.37302336  0.50046434    -0.75420
O546        O  0.55710961  0.35167592  0.46312124    -0.75210
C547        C  0.61947329  0.29023550  0.44573812     0.76580
C548        C  0.69631715  0.35729015  0.46958127     0.77070
C549        C  0.62076603  0.36781253  0.40031610     0.76030
C550        C  0.62757768  0.43259520  0.48540250     0.76400
C551        C  0.63001593  0.34352727  0.04076518     0.77540
C552        C  0.54997461  0.36247103  0.48491554     0.76590
Zn553      Zn  0.40460494  0.60864415  0.24496785     1.49720
Zn554      Zn  0.36371634  0.60801379  0.19979412     1.49360
Zn555      Zn  0.36868920  0.66080560  0.23654180     1.49110
Zn556      Zn  0.41650436  0.64399380  0.19760053     1.49480
O557        O  0.38764415  0.63078237  0.21967290    -1.84680
O558        O  0.39817921  0.57011166  0.24060305    -0.75310
O559        O  0.32595913  0.61985875  0.20542083    -0.75130
O560        O  0.37631748  0.65966870  0.27736654    -0.74650
O561        O  0.36533970  0.56829453  0.21120025    -0.75330
O562        O  0.38986655  0.61714976  0.27901479    -0.74930
O563        O  0.32849100  0.65462639  0.23285843    -0.75510
O564        O  0.40918930  0.68183426  0.18812613    -0.74900
O565        O  0.37205629  0.61584040  0.16172840    -0.75660
O566        O  0.37682362  0.69589052  0.21487103    -0.75050
O567        O  0.41501372  0.62722965  0.16181903    -0.75510
O568        O  0.45313072  0.64142768  0.21497978    -0.75420
O569        O  0.44317311  0.61532855  0.24899876    -0.75210
C570        C  0.38062404  0.55696973  0.22810827     0.76580
C571        C  0.31482687  0.63802464  0.21924670     0.77070
C572        C  0.38175817  0.63820575  0.29038137     0.76030
C573        C  0.39274496  0.69981681  0.19524692     0.76400
C574        C  0.39300438  0.62378953  0.14967084     0.77540
C575        C  0.45993704  0.62913207  0.23609637     0.76590
Zn576      Zn  0.40308388  0.66448573  0.48688439     1.49720
Zn577      Zn  0.40621489  0.60789161  0.45651311     1.49360
Zn578      Zn  0.35974739  0.61810030  0.49810869     1.49110
Zn579      Zn  0.35827349  0.64693239  0.44582061     1.49480
O580        O  0.38246929  0.63436353  0.47232478    -1.84680
O581        O  0.44170342  0.65371030  0.48986723    -0.75310
O582        O  0.39515493  0.56975142  0.46832910    -0.75130
O583        O  0.36991854  0.63201306  0.03222197    -0.74650
O584        O  0.44395314  0.61368243  0.47075387    -0.75330
O585        O  0.39381131  0.66922726  0.02627776    -0.74930
O586        O  0.36512523  0.57896529  0.49945858    -0.75510
O587        O  0.31994227  0.64589350  0.45532522    -0.74900
O588        O  0.40491151  0.61416214  0.41614230    -0.75660
O589        O  0.32066406  0.62521165  0.49401699    -0.75050
O590        O  0.36256808  0.62731589  0.41263732    -0.75510
O591        O  0.36747256  0.68364936  0.43580234    -0.75420
O592        O  0.39996681  0.69792148  0.46218246    -0.75210
C593        C  0.45475813  0.63265922  0.48389950     0.76580
C594        C  0.37930251  0.56218530  0.48681808     0.77070
C595        C  0.38240293  0.65203277  0.04129583     0.76030
C596        C  0.30790605  0.63639218  0.47532056     0.76400
C597        C  0.38473739  0.62119833  0.40223263     0.77540
C598        C  0.38430938  0.70136730  0.44237000     0.76590
Zn599      Zn  0.40832869  0.88755575  0.11273182     1.49720
Zn600      Zn  0.36075127  0.84972664  0.12507270     1.49360
Zn601      Zn  0.36027314  0.87935200  0.07359994     1.49110
Zn602      Zn  0.40207451  0.83121025  0.08063483     1.49480
O603        O  0.38365408  0.86165236  0.09728556    -1.84680
O604        O  0.40935248  0.87922514  0.15273444    -0.75310
O605        O  0.32214497  0.84948125  0.11660236    -0.75130
O606        O  0.36476489  0.91832387  0.07426780    -0.74650
O607        O  0.36584300  0.87303295  0.15571416    -0.75330
O608        O  0.39793472  0.92645603  0.10224362    -0.74930
O609        O  0.32186380  0.87088156  0.07826951    -0.75510
O610        O  0.39352150  0.83097874  0.03996916    -0.74900
O611        O  0.37094224  0.81334077  0.13633498    -0.75660
O612        O  0.37038597  0.86902935  0.03840671    -0.75050
O613        O  0.39702732  0.79666212  0.10464911    -0.75510
O614        O  0.44126463  0.83990475  0.07875547    -0.75420
O615        O  0.44460973  0.88049453  0.09667313    -0.75210
C616        C  0.38872350  0.87313317  0.16634534     0.76580
C617        C  0.30965028  0.85901553  0.09689889     0.77070
C618        C  0.38047744  0.93461396  0.08550151     0.76030
C619        C  0.38262686  0.85017080  0.02687708     0.76400
C620        C  0.38480768  0.79423362  0.12701986     0.77540
C621        C  0.45476751  0.86085025  0.08396882     0.76590
Zn622      Zn  0.35862102  0.84646440  0.37078739     1.49720
Zn623      Zn  0.40397531  0.83118215  0.32947452     1.49360
Zn624      Zn  0.35958127  0.87668360  0.31875225     1.49110
Zn625      Zn  0.40657117  0.88675902  0.36064305     1.49480
O626        O  0.38257403  0.86041399  0.34459554    -1.84680
O627        O  0.36720534  0.80862854  0.37851161    -0.75310
O628        O  0.39569361  0.82724590  0.29009376    -0.75130
O629        O  0.31994183  0.86953095  0.32347103    -0.74650
O630        O  0.40160490  0.79726809  0.35289709    -0.75330
O631        O  0.31954138  0.84935563  0.36246191    -0.74930
O632        O  0.37190894  0.86463528  0.28383564    -0.75510
O633        O  0.39484030  0.92492412  0.34961297    -0.74900
O634        O  0.44234371  0.84204146  0.32659188    -0.75660
O635        O  0.36447871  0.91590872  0.31877404    -0.75050
O636        O  0.44413420  0.88216528  0.34532991    -0.75510
O637        O  0.40654656  0.87997721  0.40116896    -0.75420
O638        O  0.36528488  0.86379109  0.40494133    -0.75210
C639        C  0.38521650  0.79211408  0.37166924     0.76580
C640        C  0.38554982  0.84514094  0.27501383     0.77070
C641        C  0.30716759  0.85897149  0.34263650     0.76030
C642        C  0.37865567  0.93260532  0.33145503     0.76400
C643        C  0.45508021  0.86332002  0.33207620     0.77540
C644        C  0.38698289  0.87168168  0.41528042     0.76590
Zn645      Zn  0.33865278  0.13628210  0.04620162     1.49720
Zn646      Zn  0.39428639  0.14020338  0.01334029     1.49360
Zn647      Zn  0.39016631  0.10065057  0.06001142     1.49110
Zn648      Zn  0.35811989  0.08788023  0.00931149     1.49480
O649        O  0.36994115  0.11667278  0.03237544    -1.84680
O650        O  0.34515177  0.17614760  0.04166064    -0.75310
O651        O  0.43407453  0.13561531  0.02411491    -0.75130
O652        O  0.37499110  0.11060352  0.09384132    -0.74650
O653        O  0.38483982  0.17821851  0.02189206    -0.75330
O654        O  0.33545166  0.12990670  0.08670965    -0.74930
O655        O  0.42781353  0.11133675  0.06031985    -0.75510
O656        O  0.36287821  0.05051640  0.02628764    -0.74900
O657        O  0.38516678  0.13497169  0.47461045    -0.75660
O658        O  0.38902396  0.06125537  0.06003404    -0.75050
O659        O  0.37597130  0.09143706  0.47402657    -0.75510
O660        O  0.32028075  0.09459105  0.99810915    -0.75420
O661        O  0.30502955  0.12748189  0.02376909    -0.75210
C662        C  0.36465811  0.18958752  0.03235818     0.76580
C663        C  0.44312872  0.12443377  0.04511706     0.77070
C664        C  0.35337058  0.12054848  0.10229182     0.76030
C665        C  0.37664097  0.04382975  0.04661179     0.76400
C666        C  0.37767055  0.11399400  0.46224104     0.77540
C667        C  0.30206271  0.11118831  0.00439116     0.76590
Zn668      Zn  0.33458069  0.13608768  0.29759037     1.49720
Zn669      Zn  0.38995858  0.13937483  0.26423640     1.49360
Zn670      Zn  0.38589863  0.09992537  0.31098018     1.49110
Zn671      Zn  0.35375593  0.08758993  0.26016228     1.49480
O672        O  0.36558931  0.11613723  0.28343823    -1.84680
O673        O  0.34144782  0.17587375  0.29277418    -0.75310
O674        O  0.42943983  0.13465254  0.27498336    -0.75130
O675        O  0.37033320  0.10905717  0.34475600    -0.74650
O676        O  0.38094751  0.17745314  0.27263160    -0.75330
O677        O  0.33174967  0.13033396  0.33832575    -0.74930
O678        O  0.42303591  0.11249953  0.31253459    -0.75510
O679        O  0.35903702  0.05017623  0.27649640    -0.74900
O680        O  0.38178775  0.13430824  0.22541958    -0.75660
O681        O  0.38565815  0.06035226  0.31007480    -0.75050
O682        O  0.37087353  0.09118523  0.22447520    -0.75510
O683        O  0.31575428  0.09425479  0.24975344    -0.75420
O684        O  0.30071310  0.12725532  0.27545662    -0.75210
C685        C  0.36102491  0.18907904  0.28327981     0.76580
C686        C  0.43820977  0.12522716  0.29688803     0.77070
C687        C  0.34941719  0.12004251  0.35361318     0.76030
C688        C  0.37317902  0.04312590  0.29642426     0.76400
C689        C  0.37430616  0.11354947  0.21273514     0.77540
C690        C  0.29758892  0.11085313  0.25617955     0.76590
Zn691      Zn  0.11687964  0.10245734  0.13159525     1.49720
Zn692      Zn  0.11166952  0.14059425  0.17905747     1.49360
Zn693      Zn  0.14821262  0.08839026  0.18281938     1.49110
Zn694      Zn  0.16776671  0.13723507  0.14667062     1.49480
O695        O  0.13649276  0.11750314  0.16002743    -1.84680
O696        O  0.07899404  0.11182020  0.13195181    -0.75310
O697        O  0.12068411  0.13531118  0.21773317    -0.75130
O698        O  0.14308301  0.05139336  0.16526626    -0.74650
O699        O  0.07194513  0.13565550  0.16823345    -0.75330
O700        O  0.11942988  0.06318270  0.12997638    -0.74930
O701        O  0.13108632  0.09199649  0.21858518    -0.75510
O702        O  0.20133919  0.12808614  0.16896780    -0.74900
O703        O  0.12072023  0.17870564  0.17076742    -0.75660
O704        O  0.18623609  0.09443139  0.19369738    -0.75050
O705        O  0.16083161  0.17684831  0.15181537    -0.75510
O706        O  0.17128543  0.13209574  0.10605282    -0.75420
O707        O  0.13089380  0.11522785  0.09816938    -0.75210
C708        C  0.06327528  0.12445830  0.14712162     0.76580
C709        C  0.12869016  0.11456861  0.23023825     0.77070
C710        C  0.13069789  0.04533416  0.14390925     0.76030
C711        C  0.20439011  0.11120594  0.18785407     0.76400
C712        C  0.14105954  0.19017811  0.16078424     0.77540
C713        C  0.15274829  0.12490523  0.09012467     0.76590
Zn714      Zn  0.15250586  0.08873916  0.43286111     1.49720
Zn715      Zn  0.12078504  0.10077380  0.38127582     1.49360
Zn716      Zn  0.11553578  0.14014376  0.42796820     1.49110
Zn717      Zn  0.17131409  0.13743878  0.39511997     1.49480
O718        O  0.14049329  0.11712072  0.40917589    -1.84680
O719        O  0.14730122  0.05103594  0.41710959    -0.75310
O720        O  0.08279531  0.11158153  0.38016167    -0.75130
O721        O  0.12335699  0.13568687  0.46688905    -0.74650
O722        O  0.12414125  0.06131349  0.38100700    -0.75330
O723        O  0.13652289  0.09316652  0.46898587    -0.74930
O724        O  0.07625864  0.13469643  0.41713680    -0.75510
O725        O  0.16393184  0.17721122  0.40009606    -0.74900
O726        O  0.13544676  0.11143901  0.34761118    -0.75660
O727        O  0.12399225  0.17832558  0.41941087    -0.75050
O728        O  0.17434254  0.13187135  0.35430418    -0.75510
O729        O  0.20530225  0.12866062  0.41722430    -0.75420
O730        O  0.19066384  0.09523143  0.44258964    -0.75210
C731        C  0.13557713  0.04413166  0.39566950     0.76580
C732        C  0.06749925  0.12449033  0.39561122     0.77070
C733        C  0.13188736  0.11563892  0.48009786     0.76030
C734        C  0.14398103  0.19020005  0.40921152     0.76400
C735        C  0.15647295  0.12222159  0.33888437     0.77540
C736        C  0.20867127  0.11198092  0.43626412     0.76590
C737        C  0.14974401  0.09536882  0.27109546    -0.13900
C738        C  0.13798496  0.11728852  0.25802064     0.08250
C739        C  0.13800518  0.14241340  0.27070687    -0.13900
C740        C  0.14801355  0.14511040  0.29649036    -0.13900
C741        C  0.15838792  0.12283487  0.30995778     0.08250
C742        C  0.15974289  0.09812397  0.29678468    -0.13900
H743        H  0.15069642  0.07587874  0.26173072     0.12230
H744        H  0.12967890  0.15987117  0.26098303     0.12230
H745        H  0.14570277  0.16407932  0.30666612     0.12230
H746        H  0.16665962  0.08042793  0.30719266     0.12230
C747        C  0.16321462  0.10389956  0.04743446    -0.13900
C748        C  0.15519930  0.12680392  0.06135263     0.08250
C749        C  0.14005814  0.14644062  0.04826868    -0.13900
C750        C  0.13222031  0.14279567  0.02192457    -0.13900
C751        C  0.13902718  0.11917918  0.00834026     0.08250
C752        C  0.15525214  0.10011675  0.02116356    -0.13900
H753        H  0.17393927  0.08801111  0.05750440     0.12230
H754        H  0.13270284  0.16371662  0.05904231     0.12230
H755        H  0.12018004  0.15809271  0.01246760     0.12230
H756        H  0.16146604  0.08202501  0.51104499     0.12230
C757        C  0.27654262  0.11274660  0.21130834    -0.13900
C758        C  0.27347082  0.11198385  0.23910818     0.08250
C759        C  0.24763826  0.11170528  0.24974820    -0.13900
C760        C  0.22535684  0.11119906  0.23286424    -0.13900
C761        C  0.22843368  0.11195632  0.20505800     0.08250
C762        C  0.25424944  0.11324590  0.19445526    -0.13900
H763        H  0.29632433  0.11314748  0.20261673     0.12230
H764        H  0.24471770  0.11112710  0.27101679     0.12230
H765        H  0.20558472  0.11045627  0.24154722     0.12230
H766        H  0.25717921  0.11391339  0.17319008     0.12230
C767        C  0.36672828  0.14133376  0.42175849    -0.13900
C768        C  0.36817040  0.11625982  0.43449850     0.08250
C769        C  0.35766662  0.09372659  0.42149483    -0.13900
C770        C  0.34758304  0.09588651  0.39579774    -0.13900
C771        C  0.34758775  0.12059642  0.38254317     0.08250
C772        C  0.35659879  0.14344530  0.39595580    -0.13900
H773        H  0.37403300  0.15922035  0.43145470     0.12230
H774        H  0.35781613  0.07422367  0.43090472     0.12230
H775        H  0.34166812  0.07782981  0.38545183     0.12230
H776        H  0.35781033  0.16249517  0.38572549     0.12230
C777        C  0.35069073  0.09541176  0.14385437    -0.13900
C778        C  0.35054415  0.12039297  0.13111508     0.08250
C779        C  0.35762524  0.14332242  0.14545993    -0.13900
C780        C  0.36576701  0.14111541  0.17192426    -0.13900
C781        C  0.36710338  0.11587954  0.18437023     0.08250
C782        C  0.35874878  0.09316325  0.17022048    -0.13900
H783        H  0.34629436  0.07734636  0.13279388     0.12230
H784        H  0.35869982  0.16261200  0.13566636     0.12230
H785        H  0.37148632  0.15909997  0.18246198     0.12230
H786        H  0.35902323  0.07350297  0.17930416     0.12230
C787        C  0.22985682  0.11304146  0.48108900    -0.13900
C788        C  0.23285565  0.11294336  0.45326873     0.08250
C789        C  0.25866803  0.11308952  0.44257111    -0.13900
C790        C  0.28100026  0.11231836  0.45939895    -0.13900
C791        C  0.27798579  0.11238199  0.48722728     0.08250
C792        C  0.25218391  0.11325078  0.99790155    -0.13900
H793        H  0.21009906  0.11310529  0.48983761     0.12230
H794        H  0.26154231  0.11301680  0.42128935     0.12230
H795        H  0.30075905  0.11187300  0.45066070     0.12230
H796        H  0.24929016  0.11334931  0.01918156     0.12230
C797        C  0.39388220  0.98054202  0.33411371    -0.13900
C798        C  0.37665173  0.96120421  0.32355781     0.08250
C799        C  0.35842407  0.96901118  0.30365562    -0.13900
C800        C  0.35757737  0.99540809  0.29441235    -0.13900
C801        C  0.37483984  0.01471687  0.30491793     0.08250
C802        C  0.39295601  0.00698949  0.32493450    -0.13900
H803        H  0.40829093  0.97519322  0.34921982     0.12230
H804        H  0.34486285  0.95462669  0.29495346     0.12230
H805        H  0.34323479  0.00073130  0.27923236     0.12230
H806        H  0.40653159  0.02141516  0.33355032     0.12230
C807        C  0.39780518  0.98195869  0.08520292    -0.13900
C808        C  0.37882763  0.96309062  0.07706613     0.08250
C809        C  0.35931146  0.97096642  0.05839983    -0.13900
C810        C  0.35896026  0.99688673  0.04791335    -0.13900
C811        C  0.37794752  0.01570737  0.05599585     0.08250
C812        C  0.39730977  0.00799267  0.07485313    -0.13900
H813        H  0.41325659  0.97651577  0.09922063     0.12230
H814        H  0.34438116  0.95694349  0.05152099     0.12230
H815        H  0.34360502  0.00228301  0.03376882     0.12230
H816        H  0.41222334  0.02210821  0.08159004     0.12230
C817        C  0.40745627  0.84705096  0.48332038    -0.13900
C818        C  0.38410783  0.85278592  0.99773799     0.08250
C819        C  0.36330192  0.86676689  0.48510048    -0.13900
C820        C  0.36558515  0.87490991  0.45891210    -0.13900
C821        C  0.38861947  0.86912626  0.44429390     0.08250
C822        C  0.40967068  0.85514464  0.45663077    -0.13900
H823        H  0.42407245  0.83698910  0.49279889     0.12230
H824        H  0.34518286  0.87185089  0.99572815     0.12230
H825        H  0.34885130  0.88509352  0.44971935     0.12230
H826        H  0.42728963  0.84967971  0.44541019     0.12230
C827        C  0.41161591  0.87056435  0.21068032    -0.13900
C828        C  0.39071415  0.86319797  0.19378478     0.08250
C829        C  0.37103748  0.84533034  0.20306732    -0.13900
C830        C  0.37104210  0.83663058  0.22929020    -0.13900
C831        C  0.39084205  0.84543278  0.24660918     0.08250
C832        C  0.41150184  0.86191077  0.23709331    -0.13900
H833        H  0.42713407  0.88400267  0.20389772     0.12230
H834        H  0.35505669  0.83867836  0.19021176     0.12230
H835        H  0.35462034  0.82454303  0.23648867     0.12230
H836        H  0.42649016  0.86955674  0.25058089     0.12230
C837        C  0.40910529  0.73977872  0.42071586    -0.13900
C838        C  0.38535762  0.72549590  0.42521769     0.08250
C839        C  0.36252821  0.73229070  0.41039227    -0.13900
C840        C  0.36318775  0.75293716  0.39184530    -0.13900
C841        C  0.38678030  0.76714357  0.38718384     0.08250
C842        C  0.40983155  0.76043819  0.40169500    -0.13900
H843        H  0.42708673  0.73470568  0.43152191     0.12230
H844        H  0.34392531  0.72163212  0.41322410     0.12230
H845        H  0.34501542  0.75821706  0.38141777     0.12230
H846        H  0.42803285  0.77179352  0.39900978     0.12230
C847        C  0.37209598  0.61109204  0.33007404    -0.13900
C848        C  0.37978826  0.63602199  0.31938712     0.08250
C849        C  0.39029114  0.65562098  0.33624337    -0.13900
C850        C  0.39356273  0.64998951  0.36329145    -0.13900
C851        C  0.38656735  0.62472696  0.37357960     0.08250
C852        C  0.37531322  0.60556260  0.35692375    -0.13900
H853        H  0.36403179  0.59556874  0.31739979     0.12230
H854        H  0.39677555  0.67473740  0.32841009     0.12230
H855        H  0.40112418  0.66546602  0.37631838     0.12230
H856        H  0.36865797  0.58650206  0.36477897     0.12230
C857        C  0.36523714  0.63529431  0.11052507    -0.13900
C858        C  0.39069846  0.63240116  0.12180213     0.08250
C859        C  0.41312770  0.64129198  0.10747521    -0.13900
C860        C  0.41019376  0.65132292  0.08171659    -0.13900
C861        C  0.38480870  0.65273413  0.07012251     0.08250
C862        C  0.36234405  0.64545377  0.08503874    -0.13900
H863        H  0.34744746  0.62949456  0.12128742     0.12230
H864        H  0.43294443  0.63997092  0.11593810     0.12230
H865        H  0.42784095  0.65602323  0.07020429     0.12230
H866        H  0.34262969  0.64587825  0.07620529     0.12230
C867        C  0.37279861  0.74496900  0.18376024    -0.13900
C868        C  0.39149743  0.72470204  0.17866877     0.08250
C869        C  0.40771707  0.72716522  0.15578655    -0.13900
C870        C  0.40531238  0.74920367  0.13857703    -0.13900
C871        C  0.38667364  0.76950933  0.14376216     0.08250
C872        C  0.37048398  0.76703093  0.16664787    -0.13900
H873        H  0.35974616  0.74368236  0.20083167     0.12230
H874        H  0.42219554  0.71181355  0.15090307     0.12230
H875        H  0.41823000  0.75046302  0.12140334     0.12230
H876        H  0.35586642  0.78227219  0.17147303     0.12230
C877        C  0.64391539  0.37644663  0.32973550    -0.13900
C878        C  0.63318914  0.35351281  0.31758107     0.08250
C879        C  0.61921119  0.33488173  0.33291381    -0.13900
C880        C  0.61473929  0.33992851  0.35981002    -0.13900
C881        C  0.62444234  0.36352201  0.37170126     0.08250
C882        C  0.63980765  0.38129567  0.35662634    -0.13900
H883        H  0.65433484  0.39133768  0.31802000     0.12230
H884        H  0.61024422  0.31745816  0.32376938     0.12230
H885        H  0.60354617  0.32544214  0.37129559     0.12230
H886        H  0.64795616  0.39929052  0.36543988     0.12230
C887        C  0.60444323  0.34563894  0.10897729    -0.13900
C888        C  0.62367504  0.36216321  0.12099391     0.08250
C889        C  0.64782205  0.36690734  0.10759812    -0.13900
C890        C  0.65180593  0.35689617  0.08202046    -0.13900
C891        C  0.63189746  0.34174043  0.06952956     0.08250
C892        C  0.60852889  0.33557026  0.08348536    -0.13900
H893        H  0.58595011  0.34088745  0.11904787     0.12230
H894        H  0.66329419  0.37902812  0.11653585     0.12230
H895        H  0.66948661  0.36285293  0.07114105     0.12230
H896        H  0.59247312  0.32485185  0.07380109     0.12230
C897        C  0.51347047  0.13302554  0.29563193    -0.13900
C898        C  0.51954142  0.13215394  0.32288663     0.08250
C899        C  0.49874359  0.13061691  0.34131168    -0.13900
C900        C  0.47235901  0.12875842  0.33261197    -0.13900
C901        C  0.46620296  0.12906311  0.30533476     0.08250
C902        C  0.48695650  0.13187523  0.28691743    -0.13900
H903        H  0.52931046  0.13439360  0.28106636     0.12230
H904        H  0.50295845  0.12984634  0.36236079     0.12230
H905        H  0.45669792  0.12685809  0.34730427     0.12230
H906        H  0.48277257  0.13220587  0.26585839     0.12230
C907        C  0.64361437  0.23687719  0.39716037    -0.13900
C908        C  0.61924342  0.22630072  0.38807858     0.08250
C909        C  0.59543390  0.23590493  0.39940151    -0.13900
C910        C  0.59580892  0.25561996  0.41901319    -0.13900
C911        C  0.62002909  0.26619131  0.42830811     0.08250
C912        C  0.64400880  0.25657137  0.41719295    -0.13900
H913        H  0.66232407  0.22938348  0.38934319     0.12230
H914        H  0.57633909  0.22791064  0.39321778     0.12230
H915        H  0.57696486  0.26281890  0.42680480     0.12230
H916        H  0.66297123  0.26478885  0.42345690     0.12230
C917        C  0.51463956  0.14917535  0.05265464    -0.13900
C918        C  0.52394865  0.13281670  0.07353276     0.08250
C919        C  0.50687254  0.11323987  0.08390614    -0.13900
C920        C  0.48105954  0.11028451  0.07401720    -0.13900
C921        C  0.47153207  0.12669275  0.05330481     0.08250
C922        C  0.48869731  0.14607000  0.04255495    -0.13900
H923        H  0.52749136  0.16422920  0.04396025     0.12230
H924        H  0.51340850  0.10020757  0.09981470     0.12230
H925        H  0.46843957  0.09510871  0.08284643     0.12230
H926        H  0.48192965  0.15912195  0.02676623     0.12230
C927        C  0.64663506  0.14106294  0.48339125    -0.13900
C928        C  0.62476481  0.15122481  0.99764247     0.08250
C929        C  0.59998776  0.15367998  0.48498727    -0.13900
C930        C  0.59693569  0.14498225  0.45877113    -0.13900
C931        C  0.61862038  0.13364286  0.44490234     0.08250
C932        C  0.64361066  0.13231790  0.45738426    -0.13900
H933        H  0.66584668  0.13853850  0.49294752     0.12230
H934        H  0.58267002  0.16066227  0.49585812     0.12230
H935        H  0.57754192  0.14685628  0.44948328     0.12230
H936        H  0.66090245  0.12442015  0.44711358     0.12230
C937        C  0.64516637  0.13760900  0.20540533    -0.13900
C938        C  0.62101967  0.12967972  0.19326276     0.08250
C939        C  0.59713033  0.13262871  0.20739903    -0.13900
C940        C  0.59761004  0.14168357  0.23361536    -0.13900
C941        C  0.62189893  0.14822131  0.24607375     0.08250
C942        C  0.64558171  0.14681749  0.23154664    -0.13900
H943        H  0.66396640  0.13616082  0.19489694     0.12230
H944        H  0.57821470  0.12733199  0.19846626     0.12230
H945        H  0.57914569  0.14195485  0.24481875     0.12230
H946        H  0.66456912  0.15083674  0.24099924     0.12230
C947        C  0.59997022  0.24529633  0.13953440    -0.13900
C948        C  0.61882703  0.22516329  0.14468780     0.08250
C949        C  0.63546228  0.22797625  0.16712789    -0.13900
C950        C  0.63356480  0.25039088  0.18371857    -0.13900
C951        C  0.61483940  0.27062362  0.17851855     0.08250
C952        C  0.59795758  0.26768875  0.15625782    -0.13900
H953        H  0.58673694  0.24373336  0.12264225     0.12230
H954        H  0.65024128  0.21286024  0.17186208     0.12230
H955        H  0.64707103  0.25204621  0.20038949     0.12230
H956        H  0.58344802  0.28301533  0.15137803     0.12230
C957        C  0.86561125  0.90524977  0.27181953    -0.13900
C958        C  0.86851220  0.88108575  0.25802159     0.08250
C959        C  0.85903322  0.85726065  0.26984013    -0.13900
C960        C  0.84875461  0.85732824  0.29561942    -0.13900
C961        C  0.84784906  0.88118698  0.31007764     0.08250
C962        C  0.85539979  0.90527644  0.29759591    -0.13900
H963        H  0.87197192  0.92398725  0.26304624     0.12230
H964        H  0.86026921  0.83831773  0.25946390     0.12230
H965        H  0.84374988  0.83845969  0.30499261     0.12230
H966        H  0.85528157  0.92391187  0.30860222     0.12230
C967        C  0.84683353  0.89912810  0.04899152    -0.13900
C968        C  0.85567599  0.87631946  0.06267006     0.08250
C969        C  0.86998563  0.85651471  0.04881119    -0.13900
C970        C  0.87633554  0.85986604  0.02218020    -0.13900
C971        C  0.86840877  0.88306158  0.00859899     0.08250
C972        C  0.85316752  0.90248507  0.02213280    -0.13900
H973        H  0.83625575  0.91491829  0.05933017     0.12230
H974        H  0.87722750  0.83876819  0.05890614     0.12230
H975        H  0.88757337  0.84425248  0.01226990     0.12230
H976        H  0.84616040  0.92028025  0.51199251     0.12230
C977        C  0.60786557  0.99173719  0.31379963    -0.13900
C978        C  0.63246671  0.98081471  0.30605632     0.08250
C979        C  0.65593134  0.99558817  0.31007667    -0.13900
C980        C  0.65467436  0.02112195  0.32163568    -0.13900
C981        C  0.62989776  0.03224440  0.32871142     0.08250
C982        C  0.60654592  0.01739245  0.32458281    -0.13900
H983        H  0.58958709  0.98047840  0.31116543     0.12230
H984        H  0.67514216  0.98721289  0.30470370     0.12230
H985        H  0.67283926  0.03259353  0.32405316     0.12230
H986        H  0.58721357  0.02584761  0.32941467     0.12230
C987        C  0.51891191  0.85135468  0.29262605    -0.13900
C988        C  0.53477389  0.87306179  0.30052381     0.08250
C989        C  0.52400225  0.89175863  0.31855042    -0.13900
C990        C  0.49829643  0.88857104  0.32887390    -0.13900
C991        C  0.48267942  0.86647019  0.32163214     0.08250
C992        C  0.49318536  0.84804342  0.30313615    -0.13900
H993        H  0.52668706  0.83648469  0.27902644     0.12230
H994        H  0.53567831  0.90875075  0.32509302     0.12230
H995        H  0.49077234  0.90330831  0.34275145     0.12230
H996        H  0.48153141  0.83096973  0.29678292     0.12230
C997        C  0.75358665  0.87153780  0.24707980    -0.13900
C998        C  0.73182876  0.88753552  0.23964027     0.08250
C999        C  0.73369437  0.90222207  0.21570960    -0.13900
C1000       C  0.75657382  0.90069785  0.19958064    -0.13900
C1001       C  0.77823319  0.88446845  0.20695941     0.08250
C1002       C  0.77642182  0.87010770  0.23108130    -0.13900
H1003       H  0.75290106  0.85988081  0.26518235     0.12230
H1004       H  0.71719460  0.91457243  0.20911242     0.12230
H1005       H  0.75721815  0.91206983  0.18130405     0.12230
H1006       H  0.79271897  0.85749473  0.23769575     0.12230
C1007       C  0.64593296  0.99933968  0.04381921    -0.13900
C1008       C  0.62774682  0.98023136  0.05309815     0.08250
C1009       C  0.60894628  0.98801211  0.07251511    -0.13900
C1010       C  0.60835051  0.01423591  0.08239813    -0.13900
C1011       C  0.62661651  0.03333906  0.07319558     0.08250
C1012       C  0.64542913  0.02550605  0.05378467    -0.13900
H1013       H  0.66081614  0.99398224  0.02916421     0.12230
H1014       H  0.59460511  0.97375785  0.08016765     0.12230
H1015       H  0.59344916  0.01958968  0.09703242     0.12230
H1016       H  0.65980745  0.03969092  0.04608139     0.12230
C1017       C  0.49299916  0.84368299  0.05631123    -0.13900
C1018       C  0.48245487  0.86299641  0.07383309     0.08250
C1019       C  0.49799728  0.88542869  0.08018019    -0.13900
C1020       C  0.52357123  0.88830009  0.06970588    -0.13900
C1021       C  0.53430484  0.86890489  0.05248030     0.08250
C1022       C  0.51868266  0.84666511  0.04564560    -0.13900
H1023       H  0.48137480  0.82630901  0.05075160     0.12230
H1024       H  0.49043999  0.90082878  0.09331820     0.12230
H1025       H  0.53511771  0.90570593  0.07536645     0.12230
H1026       H  0.52656738  0.83127377  0.03269053     0.12230
C1027       C  0.62570194  0.85446970  0.41819493    -0.13900
C1028       C  0.63453334  0.87665128  0.43284075     0.08250
C1029       C  0.65307560  0.89428549  0.42122414    -0.13900
C1030       C  0.66156008  0.89057535  0.39509348    -0.13900
C1031       C  0.65159790  0.86926036  0.38008720     0.08250
C1032       C  0.63394406  0.85100081  0.39194353    -0.13900
H1033       H  0.61180502  0.84028861  0.42674650     0.12230
H1034       H  0.66085434  0.91115864  0.43225193     0.12230
H1035       H  0.67433437  0.90546541  0.38598867     0.12230
H1036       H  0.62516400  0.83505865  0.38029495     0.12230
C1037       C  0.64672022  0.85269904  0.14472239    -0.13900
C1038       C  0.65409474  0.87544479  0.13021479     0.08250
C1039       C  0.65383905  0.90057612  0.14262746    -0.13900
C1040       C  0.64532646  0.90316062  0.16881402    -0.13900
C1041       C  0.63664134  0.88063446  0.18309134     0.08250
C1042       C  0.63810749  0.85524525  0.17100067    -0.13900
H1043       H  0.64574443  0.83330239  0.13515566     0.12230
H1044       H  0.65848512  0.91849777  0.13140767     0.12230
H1045       H  0.64497473  0.92292257  0.17764937     0.12230
H1046       H  0.63216348  0.83739624  0.18167413     0.12230
C1047       C  0.72378660  0.88167008  0.45905096    -0.13900
C1048       C  0.72720665  0.88055175  0.48680728     0.08250
C1049       C  0.75305777  0.87811541  0.99705677    -0.13900
C1050       C  0.77510706  0.87814016  0.47989427    -0.13900
C1051       C  0.77168154  0.87959721  0.45216117     0.08250
C1052       C  0.74579101  0.88078994  0.44184924    -0.13900
H1053       H  0.70395627  0.88322312  0.45066004     0.12230
H1054       H  0.75623374  0.87713315  0.01827238     0.12230
H1055       H  0.79499242  0.87720098  0.48829136     0.12230
H1056       H  0.74264371  0.88206062  0.42064384     0.12230
C1057       C  0.88626765  0.73422639  0.40901971    -0.13900
C1058       C  0.86235452  0.71956228  0.40871791     0.08250
C1059       C  0.83796839  0.73353998  0.40861171    -0.13900
C1060       C  0.83752819  0.76163274  0.40841750    -0.13900
C1061       C  0.86145316  0.77627060  0.40913379     0.08250
C1062       C  0.88581492  0.76226082  0.40962548    -0.13900
H1063       H  0.90534319  0.72397952  0.40915159     0.12230
H1064       H  0.81924970  0.72272984  0.40821470     0.12230
H1065       H  0.81848041  0.77192095  0.40816738     0.12230
H1066       H  0.90456254  0.77302389  0.41011227     0.12230
C1067       C  0.84598017  0.73498413  0.15943155    -0.13900
C1068       C  0.87005979  0.72068217  0.16023654     0.08250
C1069       C  0.89442686  0.73440196  0.16064439    -0.13900
C1070       C  0.89474375  0.76226587  0.15982043    -0.13900
C1071       C  0.87068172  0.77658286  0.15948839     0.08250
C1072       C  0.84628373  0.76289007  0.15957436    -0.13900
H1073       H  0.82703477  0.72456265  0.15906071     0.12230
H1074       H  0.91316377  0.72353856  0.16102357     0.12230
H1075       H  0.91370711  0.77266297  0.15999910     0.12230
H1076       H  0.82756719  0.77379106  0.15937264     0.12230
C1077       C  0.84892729  0.59566499  0.26905018    -0.13900
C1078       C  0.85229609  0.62028192  0.25609526     0.08250
C1079       C  0.86256005  0.64213727  0.27030996    -0.13900
C1080       C  0.87062493  0.63916588  0.29655817    -0.13900
C1081       C  0.86860332  0.61422922  0.30926911     0.08250
C1082       C  0.85703352  0.59264803  0.29545265    -0.13900
H1083       H  0.84174242  0.57835128  0.25828406     0.12230
H1084       H  0.86569939  0.66124023  0.26058744     0.12230
H1085       H  0.87873352  0.65639727  0.30677655     0.12230
H1086       H  0.85456588  0.57333234  0.30491162     0.12230
C1087       C  0.86843325  0.59310468  0.04657163    -0.13900
C1088       C  0.87103816  0.61740205  0.06018806     0.08250
C1089       C  0.86264127  0.64126658  0.04761729    -0.13900
C1090       C  0.85331827  0.64098998  0.02149548    -0.13900
C1091       C  0.85227125  0.61687440  0.00748504     0.08250
C1092       C  0.85919857  0.59287521  0.02046686    -0.13900
H1093       H  0.87402367  0.57435865  0.05586774     0.12230
H1094       H  0.86381161  0.66033518  0.05776430     0.12230
H1095       H  0.84888870  0.65977785  0.01166158     0.12230
H1096       H  0.85904297  0.57406477  0.00975594     0.12230
C1097       C  0.66733379  0.73610430  0.27604622    -0.13900
C1098       C  0.64439944  0.72177483  0.28357563     0.08250
C1099       C  0.62110676  0.73602667  0.29022131    -0.13900
C1100       C  0.62063192  0.76394476  0.28903069    -0.13900
C1101       C  0.64358711  0.77819852  0.28177749     0.08250
C1102       C  0.66701357  0.76413429  0.27547241    -0.13900
H1103       H  0.68557228  0.72567682  0.27085806     0.12230
H1104       H  0.60310523  0.72559525  0.29607707     0.12230
H1105       H  0.60239225  0.77445647  0.29409269     0.12230
H1106       H  0.68488853  0.77481943  0.26967100     0.12230
C1107       C  0.60884571  0.50483816  0.26264456    -0.13900
C1108       C  0.63302272  0.51862101  0.26019611     0.08250
C1109       C  0.65400185  0.50700734  0.24571801    -0.13900
C1110       C  0.65091803  0.48160754  0.23419872    -0.13900
C1111       C  0.62689135  0.46741869  0.23729146     0.08250
C1112       C  0.60590839  0.47937775  0.25161401    -0.13900
H1113       H  0.59221732  0.51382010  0.27314244     0.12230
H1114       H  0.67254965  0.51777718  0.24297376     0.12230
H1115       H  0.66755150  0.47272577  0.22364794     0.12230
H1116       H  0.58721985  0.46889109  0.25449822     0.12230
C1117       C  0.53397603  0.64314439  0.24090439    -0.13900
C1118       C  0.54020246  0.63184843  0.26566155     0.08250
C1119       C  0.51990360  0.62076100  0.28115741    -0.13900
C1120       C  0.49376007  0.62011337  0.27153700    -0.13900
C1121       C  0.48750398  0.63085223  0.24640225     0.08250
C1122       C  0.50779202  0.64292478  0.23145095    -0.13900
H1123       H  0.54958689  0.65154391  0.22858198     0.12230
H1124       H  0.52447856  0.61150233  0.30004968     0.12230
H1125       H  0.47851713  0.61080376  0.28364738     0.12230
H1126       H  0.50360072  0.65147252  0.21215539     0.12230
C1127       C  0.72759825  0.61645606  0.35665340    -0.13900
C1128       C  0.73147747  0.61718835  0.32894224     0.08250
C1129       C  0.75747371  0.61887664  0.31896709    -0.13900
C1130       C  0.77924989  0.61846270  0.33638467    -0.13900
C1131       C  0.77540109  0.61728584  0.36408294     0.08250
C1132       C  0.74936683  0.61693211  0.37411191    -0.13900
H1133       H  0.70760554  0.61538775  0.36479534     0.12230
H1134       H  0.76095356  0.61949094  0.29778066     0.12230
H1135       H  0.79925461  0.61883087  0.32820496     0.12230
H1136       H  0.74591127  0.61592786  0.39528641     0.12230
C1137       C  0.66529795  0.73245859  0.03485157    -0.13900
C1138       C  0.64125009  0.71804069  0.03383156     0.08250
C1139       C  0.61704799  0.73220149  0.03231066    -0.13900
C1140       C  0.61686405  0.76017383  0.03150670    -0.13900
C1141       C  0.64084429  0.77466647  0.03284442     0.08250
C1142       C  0.66507805  0.76054378  0.03470049    -0.13900
H1143       H  0.68421724  0.72201999  0.03620102     0.12230
H1144       H  0.59821870  0.72160687  0.03143974     0.12230
H1145       H  0.59787874  0.77049425  0.03012897     0.12230
H1146       H  0.68386117  0.77120409  0.03562846     0.12230
C1147       C  0.60966994  0.49782171  0.01901235    -0.13900
C1148       C  0.63292512  0.51284673  0.01543259     0.08250
C1149       C  0.65415550  0.50202135  0.50072078    -0.13900
C1150       C  0.65218553  0.47623039  0.48987999    -0.13900
C1151       C  0.62902010  0.46092282  0.49386625     0.08250
C1152       C  0.60784500  0.47199318  0.00861953    -0.13900
H1153       H  0.59283572  0.50619416  0.02967768     0.12230
H1154       H  0.67197327  0.51374996  0.49716497     0.12230
H1155       H  0.66889942  0.46807232  0.47889328     0.12230
H1156       H  0.58975200  0.46065796  0.01205475     0.12230
C1157       C  0.51855037  0.64334322  0.02363105    -0.13900
C1158       C  0.53523224  0.62314172  0.01354476     0.08250
C1159       C  0.52514544  0.60616162  0.49360707    -0.13900
C1160       C  0.49921448  0.60936922  0.48386058    -0.13900
C1161       C  0.48266890  0.62982493  0.49356366     0.08250
C1162       C  0.49259858  0.64672138  0.01366698    -0.13900
H1163       H  0.52572668  0.65687343  0.03879689     0.12230
H1164       H  0.53741611  0.59038093  0.48529692     0.12230
H1165       H  0.49219010  0.59589672  0.46856996     0.12230
H1166       H  0.48022621  0.66248057  0.02186561     0.12230
C1167       C  0.65478552  0.59347073  0.42329513    -0.13900
C1168       C  0.65584843  0.61819450  0.43647556     0.08250
C1169       C  0.65010299  0.64171642  0.42245450    -0.13900
C1170       C  0.64225128  0.64038406  0.39586896    -0.13900
C1171       C  0.64001817  0.61547113  0.38294144     0.08250
C1172       C  0.64712622  0.59210774  0.39675810    -0.13900
H1173       H  0.65828479  0.57501214  0.43408017     0.12230
H1174       H  0.64982518  0.66086325  0.43254857     0.12230
H1175       H  0.63748954  0.65883207  0.38559017     0.12230
H1176       H  0.64613059  0.57267655  0.38728382     0.12230
C1177       C  0.65104111  0.59587150  0.14635750    -0.13900
C1178       C  0.63812228  0.61702542  0.13309475     0.08250
C1179       C  0.63662874  0.64218827  0.14556317    -0.13900
C1180       C  0.64640798  0.64560778  0.17131937    -0.13900
C1181       C  0.65805117  0.62404751  0.18491938     0.08250
C1182       C  0.66081594  0.59935629  0.17200947    -0.13900
H1183       H  0.65314772  0.57639375  0.13714776     0.12230
H1184       H  0.62735595  0.65906733  0.13568119     0.12230
H1185       H  0.64301392  0.66448535  0.18136893     0.12230
H1186       H  0.66870507  0.58216869  0.18257008     0.12230
C1187       C  0.73327618  0.59492084  0.10153700    -0.13900
C1188       C  0.73130111  0.60995857  0.07783035     0.08250
C1189       C  0.75272570  0.62656274  0.07087453    -0.13900
C1190       C  0.77536390  0.62818997  0.08712461    -0.13900
C1191       C  0.77727143  0.61341892  0.11099797     0.08250
C1192       C  0.75592772  0.59663769  0.11789439    -0.13900
H1193       H  0.71703452  0.58209508  0.10778037     0.12230
H1194       H  0.75193058  0.63851138  0.05296319     0.12230
H1195       H  0.79143222  0.64124608  0.08090637     0.12230
H1196       H  0.75665919  0.58492886  0.13595928     0.12230
C1197       C  0.23542065  0.84390698  0.36202065    -0.13900
C1198       C  0.22097755  0.85818026  0.34276515     0.08250
C1199       C  0.23511358  0.87235489  0.32316746    -0.13900
C1200       C  0.26305401  0.87223401  0.32281023    -0.13900
C1201       C  0.27752753  0.85821669  0.34225221     0.08250
C1202       C  0.26336159  0.84407285  0.36187709    -0.13900
H1203       H  0.22511814  0.83290185  0.37743783     0.12230
H1204       H  0.22455536  0.88344817  0.30797068     0.12230
H1205       H  0.27331162  0.88340689  0.30748492     0.12230
H1206       H  0.27387129  0.83311375  0.37719848     0.12230
C1207       C  0.98522167  0.86784807  0.40579119    -0.13900
C1208       C  0.96427080  0.86720662  0.38745773     0.08250
C1209       C  0.97012391  0.86485862  0.36025178    -0.13900
C1210       C  0.99649765  0.86370202  0.35143096    -0.13900
C1211       C  0.01746655  0.86559038  0.36962501     0.08250
C1212       C  0.01166279  0.86739018  0.39689829    -0.13900
H1213       H  0.98116816  0.86975309  0.42680014     0.12230
H1214       H  0.95421054  0.86419549  0.34573623     0.12230
H1215       H  0.00049809  0.86221159  0.33037635     0.12230
H1216       H  0.02761948  0.86853157  0.41133626     0.12230
C1217       C  0.13132291  0.98358590  0.35057892    -0.13900
C1218       C  0.13096037  0.96248685  0.36885573     0.08250
C1219       C  0.13358169  0.96826780  0.39608015    -0.13900
C1220       C  0.13606015  0.99471155  0.40492449    -0.13900
C1221       C  0.13525203  0.01590557  0.38674003     0.08250
C1222       C  0.13310485  0.01006994  0.35946697    -0.13900
H1223       H  0.12931300  0.97966236  0.32955975     0.12230
H1224       H  0.13357387  0.95225139  0.41058099     0.12230
H1225       H  0.13771757  0.99862104  0.42597662     0.12230
H1226       H  0.13267646  0.02607183  0.34495725     0.12230
C1227       C  0.23906288  0.86223838  0.07181975    -0.13900
C1228       C  0.22466615  0.85744615  0.09515591     0.08250
C1229       C  0.23816267  0.85177882  0.11878756    -0.13900
C1230       C  0.26596346  0.85120338  0.11913355    -0.13900
C1231       C  0.28047639  0.85700804  0.09598486     0.08250
C1232       C  0.26681229  0.86231581  0.07227834    -0.13900
H1233       H  0.22882224  0.86683754  0.05345153     0.12230
H1234       H  0.22720317  0.84795644  0.13691668     0.12230
H1235       H  0.27607317  0.84710326  0.13767393     0.12230
H1236       H  0.27755079  0.86681655  0.05417571     0.12230
C1237       C  0.00444057  0.88815126  0.10601419    -0.13900
C1238       C  0.02351718  0.87250833  0.11927909     0.08250
C1239       C  0.01696515  0.86166886  0.14427646    -0.13900
C1240       C  0.99165152  0.86589359  0.15546413    -0.13900
C1241       C  0.97238337  0.88075737  0.14169969     0.08250
C1242       C  0.97900170  0.89185601  0.11693524    -0.13900
H1243       H  0.00892304  0.89682677  0.08683868     0.12230
H1244       H  0.03142700  0.84983782  0.15515209     0.12230
H1245       H  0.98673796  0.85657797  0.17423830     0.12230
H1246       H  0.96415051  0.90283787  0.10570040     0.12230
C1247       C  0.14740489  0.97227331  0.13246151    -0.13900
C1248       C  0.12845877  0.96484598  0.11309426     0.08250
C1249       C  0.11026218  0.98416617  0.10410950    -0.13900
C1250       C  0.11086066  0.01018026  0.11444431    -0.13900
C1251       C  0.12953928  0.01739458  0.13411650     0.08250
C1252       C  0.14784056  0.99816498  0.14293402    -0.13900
H1253       H  0.16175925  0.95790238  0.13994668     0.12230
H1254       H  0.09525833  0.97906779  0.08952372     0.12230
H1255       H  0.09648386  0.02463594  0.10715484     0.12230
H1256       H  0.16267389  0.00319134  0.15772022     0.12230
C1257       C  0.09613514  0.85782717  0.48366106    -0.13900
C1258       C  0.11997115  0.86424568  0.99669001     0.08250
C1259       C  0.14443844  0.85801388  0.48417536    -0.13900
C1260       C  0.14504859  0.84742127  0.45853282    -0.13900
C1261       C  0.12123787  0.84286250  0.44485344     0.08250
C1262       C  0.09678986  0.84729108  0.45796964    -0.13900
H1263       H  0.07702919  0.86163995  0.49298268     0.12230
H1264       H  0.16326939  0.86211107  0.49387485     0.12230
H1265       H  0.16407709  0.84512232  0.44856347     0.12230
H1266       H  0.07813106  0.84464302  0.44744210     0.12230
C1267       C  0.14200520  0.86386597  0.20657044    -0.13900
C1268       C  0.12196142  0.85001613  0.19269385     0.08250
C1269       C  0.09843986  0.84299133  0.20602833    -0.13900
C1270       C  0.09474006  0.85057981  0.23255307    -0.13900
C1271       C  0.11447873  0.86537800  0.24606000     0.08250
C1272       C  0.13827975  0.87155366  0.23280383    -0.13900
H1273       H  0.16030191  0.86975466  0.19670574     0.12230
H1274       H  0.08245539  0.83289666  0.19562347     0.12230
H1275       H  0.07642151  0.84489528  0.24245315     0.12230
H1276       H  0.15415791  0.88232038  0.24269701     0.12230
C1277       C  0.23645239  0.64039724  0.45301539    -0.13900
C1278       C  0.22264926  0.63778202  0.47706857     0.08250
C1279       C  0.23700678  0.63567761  0.50086044    -0.13900
C1280       C  0.26488607  0.63535761  0.50044792    -0.13900
C1281       C  0.27864605  0.63776392  0.47629738     0.08250
C1282       C  0.26419301  0.64064859  0.45265575    -0.13900
H1283       H  0.22576927  0.64222120  0.43443212     0.12230
H1284       H  0.22669588  0.63356785  0.01962291     0.12230
H1285       H  0.27566320  0.63318716  0.01893466     0.12230
H1286       H  0.27433142  0.64242349  0.43376355     0.12230
C1287       C  0.00416224  0.60792659  0.45632105    -0.13900
C1288       C  0.02029084  0.62913402  0.44777607     0.08250
C1289       C  0.01030276  0.64696282  0.42847232    -0.13900
C1290       C  0.98450205  0.64386255  0.41828737    -0.13900
C1291       C  0.96818493  0.62299395  0.42737156     0.08250
C1292       C  0.97842704  0.60493826  0.44630545    -0.13900
H1293       H  0.01133026  0.59372590  0.47092939     0.12230
H1294       H  0.02244832  0.66330742  0.42117321     0.12230
H1295       H  0.97710600  0.65815950  0.40388904     0.12230
H1296       H  0.96637776  0.58857507  0.45373206     0.12230
C1297       C  0.13982937  0.74400333  0.01595278    -0.13900
C1298       C  0.11588434  0.73167775  0.00839825     0.08250
C1299       C  0.09183471  0.74082354  0.01978060    -0.13900
C1300       C  0.09195909  0.76175102  0.03861803    -0.13900
C1301       C  0.11613049  0.77388766  0.04610805     0.08250
C1302       C  0.13992478  0.76487650  0.03428670    -0.13900
H1303       H  0.15870825  0.73696491  0.00808024     0.12230
H1304       H  0.07317445  0.73106272  0.01496376     0.12230
H1305       H  0.07327120  0.76868981  0.04696034     0.12230
H1306       H  0.15884564  0.77399807  0.03939469     0.12230
C1307       C  0.24330446  0.64664444  0.24238009    -0.13900
C1308       C  0.22891677  0.63844966  0.21981229     0.08250
C1309       C  0.24312380  0.63131787  0.19685138    -0.13900
C1310       C  0.27101076  0.63167463  0.19665658    -0.13900
C1311       C  0.28535247  0.63946577  0.21929178     0.08250
C1312       C  0.27126420  0.64730237  0.24206045    -0.13900
H1313       H  0.23298076  0.65215427  0.26044267     0.12230
H1314       H  0.23270997  0.62504382  0.17911074     0.12230
H1315       H  0.28142179  0.62570735  0.17877703     0.12230
H1316       H  0.28187712  0.65316391  0.25982940     0.12230
C1317       C  0.99190342  0.62361591  0.16162310    -0.13900
C1318       C  0.97116670  0.61728054  0.17925415     0.08250
C1319       C  0.97712598  0.61453982  0.20641340    -0.13900
C1320       C  0.00316501  0.61805712  0.21582638    -0.13900
C1321       C  0.02368814  0.62538851  0.19843730     0.08250
C1322       C  0.01790660  0.62801188  0.17121628    -0.13900
H1323       H  0.98779089  0.62624292  0.14070714     0.12230
H1324       H  0.96143966  0.60989882  0.22047042     0.12230
H1325       H  0.00715110  0.61574416  0.23680933     0.12230
H1326       H  0.03357707  0.63331087  0.15737782     0.12230
C1327       C  0.13727693  0.61564685  0.33573543    -0.13900
C1328       C  0.11532484  0.62321515  0.32042375     0.08250
C1329       C  0.09526805  0.63937124  0.33169355    -0.13900
C1330       C  0.09748671  0.64803041  0.35811337    -0.13900
C1331       C  0.11988935  0.64070308  0.37322943     0.08250
C1332       C  0.13966313  0.62443052  0.36162333    -0.13900
H1333       H  0.15328566  0.60382261  0.32720245     0.12230
H1334       H  0.07862119  0.64620915  0.31977005     0.12230
H1335       H  0.08167908  0.65998908  0.36677051     0.12230
H1336       H  0.15710953  0.61816910  0.37271536     0.12230
C1337       C  0.11436589  0.61187402  0.11404623    -0.13900
C1338       C  0.11246100  0.63812113  0.12437929     0.08250
C1339       C  0.10330162  0.65881017  0.10803627    -0.13900
C1340       C  0.09862781  0.65374799  0.08120482    -0.13900
C1341       C  0.10252812  0.62791663  0.07067084     0.08250
C1342       C  0.10941895  0.60681972  0.08738547    -0.13900
H1343       H  0.12062070  0.59525239  0.12639891     0.12230
H1344       H  0.10119609  0.67900299  0.11559075     0.12230
H1345       H  0.09380497  0.67037251  0.06822262     0.12230
H1346       H  0.11310665  0.58698664  0.07945766     0.12230
C1347       C  0.14011588  0.73117936  0.28403532    -0.13900
C1348       C  0.12040886  0.72631981  0.26457315     0.08250
C1349       C  0.09833297  0.74359734  0.26348358    -0.13900
C1350       C  0.09589522  0.76485534  0.28161030    -0.13900
C1351       C  0.11544168  0.76938239  0.30134178     0.08250
C1352       C  0.13766569  0.75231885  0.30211334    -0.13900
H1353       H  0.15748369  0.71833169  0.28559356     0.12230
H1354       H  0.08266806  0.74033560  0.24906742     0.12230
H1355       H  0.07864649  0.77785745  0.28006049     0.12230
H1356       H  0.15336470  0.75544099  0.31652756     0.12230
C1357       C  0.16709030  0.26245004  0.40761882    -0.13900
C1358       C  0.14262204  0.27625407  0.40710873     0.08250
C1359       C  0.11875786  0.26154934  0.40700842    -0.13900
C1360       C  0.11930743  0.23361215  0.40777341    -0.13900
C1361       C  0.14373621  0.21975929  0.40805656     0.08250
C1362       C  0.16764555  0.23440906  0.40776780    -0.13900
H1363       H  0.18577285  0.27333021  0.40755027     0.12230
H1364       H  0.09961852  0.27167163  0.40667743     0.12230
H1365       H  0.10057192  0.22281460  0.40789667     0.12230
H1366       H  0.18673180  0.22419589  0.40811024     0.12230
C1367       C  0.11654496  0.48625017  0.45500463    -0.13900
C1368       C  0.13084100  0.47994484  0.43167293     0.08250
C1369       C  0.14394381  0.50063316  0.41815271    -0.13900
C1370       C  0.14267584  0.52695390  0.42766424    -0.13900
C1371       C  0.12808520  0.53327690  0.45079935     0.08250
C1372       C  0.11505426  0.51259514  0.46435170    -0.13900
H1373       H  0.10623752  0.47080255  0.46605309     0.12230
H1374       H  0.15514561  0.49651174  0.40024192     0.12230
H1375       H  0.15276033  0.54249207  0.41653095     0.12230
H1376       H  0.10364610  0.51677408  0.48212182     0.12230
C1377       C  0.11771651  0.26207727  0.15820767    -0.13900
C1378       C  0.14199978  0.27607894  0.15791837     0.08250
C1379       C  0.16607747  0.26163840  0.15848557    -0.13900
C1380       C  0.16584564  0.23363329  0.15901504    -0.13900
C1381       C  0.14153299  0.21968029  0.15960961     0.08250
C1382       C  0.11748569  0.23416450  0.15933116    -0.13900
H1383       H  0.09886530  0.27273235  0.15788756     0.12230
H1384       H  0.18505709  0.27198559  0.15816326     0.12230
H1385       H  0.18465108  0.22290528  0.15934140     0.12230
H1386       H  0.09846365  0.22388762  0.15968236     0.12230
C1387       C  0.14874450  0.52451710  0.18108604    -0.13900
C1388       C  0.13127090  0.53199681  0.20177252     0.08250
C1389       C  0.11410353  0.51262402  0.21239607    -0.13900
C1390       C  0.11434521  0.48645555  0.20252943    -0.13900
C1391       C  0.13160625  0.47908179  0.18165789     0.08250
C1392       C  0.14882818  0.49840983  0.17108037    -0.13900
H1393       H  0.16211728  0.53899181  0.17220641     0.12230
H1394       H  0.10024515  0.51774588  0.22808507     0.12230
H1395       H  0.10084370  0.47198674  0.21122698     0.12230
H1396       H  0.16252793  0.49331985  0.15524174     0.12230
C1397       C  0.16324228  0.39312464  0.27047571    -0.13900
C1398       C  0.15694902  0.36975862  0.25645637     0.08250
C1399       C  0.14219704  0.34960326  0.26913728    -0.13900
C1400       C  0.13286556  0.35325217  0.29502371    -0.13900
C1401       C  0.13785129  0.37732508  0.30858806     0.08250
C1402       C  0.15384621  0.39687474  0.29629752    -0.13900
H1403       H  0.17363973  0.40937957  0.26069075     0.12230
H1404       H  0.13610298  0.33193336  0.25825814     0.12230
H1405       H  0.12108651  0.33755797  0.30410578     0.12230
H1406       H  0.15874267  0.41532600  0.30645208     0.12230
C1407       C  0.13405668  0.35111332  0.01822347    -0.13900
C1408       C  0.15224630  0.36851529  0.00591230     0.08250
C1409       C  0.16320126  0.38963144  0.02051658    -0.13900
C1410       C  0.15525689  0.39395028  0.04673978    -0.13900
C1411       C  0.13626644  0.37713777  0.05882497     0.08250
C1412       C  0.12633661  0.35519446  0.04452818    -0.13900
H1413       H  0.12451127  0.33538006  0.50689651     0.12230
H1414       H  0.17638246  0.40392313  0.01105062     0.12230
H1415       H  0.16379591  0.41064305  0.05746860     0.12230
H1416       H  0.11203795  0.34164091  0.05342276     0.12230
C1417       C  0.38534768  0.26060017  0.28557276    -0.13900
C1418       C  0.36128319  0.27504559  0.28573701     0.08250
C1419       C  0.33699231  0.26101908  0.28545072    -0.13900
C1420       C  0.33680729  0.23299143  0.28520178    -0.13900
C1421       C  0.36090797  0.21860024  0.28456998     0.08250
C1422       C  0.38516047  0.23267167  0.28469221    -0.13900
H1423       H  0.40434828  0.27092080  0.28570606     0.12230
H1424       H  0.31816903  0.27171751  0.28570755     0.12230
H1425       H  0.31785633  0.22258932  0.28500968     0.12230
H1426       H  0.40403075  0.22205111  0.28432625     0.12230
C1427       C  0.47296451  0.36580291  0.23475217    -0.13900
C1428       C  0.46703250  0.36651241  0.26206156     0.08250
C1429       C  0.48804933  0.36564703  0.28034314    -0.13900
C1430       C  0.51454451  0.36533312  0.27139757    -0.13900
C1431       C  0.52043252  0.36523040  0.24404380     0.08250
C1432       C  0.49935397  0.36487575  0.22584153    -0.13900
H1433       H  0.45708928  0.36620892  0.22018466     0.12230
H1434       H  0.48403135  0.36618704  0.30143444     0.12230
H1435       H  0.53047792  0.36538546  0.28589854     0.12230
H1436       H  0.50326911  0.36478562  0.20472073     0.12230
C1437       C  0.39793171  0.48851798  0.25402798    -0.13900
C1438       C  0.37271365  0.47782325  0.25968568     0.08250
C1439       C  0.34977035  0.49242706  0.25272560    -0.13900
C1440       C  0.35216469  0.51758876  0.24044243    -0.13900
C1441       C  0.37752596  0.52853152  0.23544243     0.08250
C1442       C  0.40032071  0.51373193  0.24240454    -0.13900
H1443       H  0.41586156  0.47733729  0.25878080     0.12230
H1444       H  0.33012317  0.48416319  0.25631514     0.12230
H1445       H  0.33430636  0.52892726  0.23584305     0.12230
H1446       H  0.42007679  0.52190599  0.23917143     0.12230
C1447       C  0.24771956  0.38152203  0.31809000    -0.13900
C1448       C  0.27358030  0.38194497  0.32857605     0.08250
C1449       C  0.27684099  0.38232432  0.35636157    -0.13900
C1450       C  0.25467441  0.38234688  0.37337397    -0.13900
C1451       C  0.22882475  0.38299780  0.36287356     0.08250
C1452       C  0.22555792  0.38252047  0.33509229    -0.13900
H1453       H  0.24467818  0.38122783  0.29683566     0.12230
H1454       H  0.29667277  0.38247671  0.36491941     0.12230
H1455       H  0.25771506  0.38261800  0.39462886     0.12230
H1456       H  0.20572984  0.38273521  0.32653856     0.12230
C1457       C  0.38804427  0.26129261  0.03618211    -0.13900
C1458       C  0.36389579  0.27556837  0.03474639     0.08250
C1459       C  0.33980802  0.26131535  0.03282874    -0.13900
C1460       C  0.33990920  0.23326490  0.03260581    -0.13900
C1461       C  0.36413415  0.21909497  0.03364070     0.08250
C1462       C  0.38817593  0.23337118  0.03533875    -0.13900
H1463       H  0.40692067  0.27173527  0.03762720     0.12230
H1464       H  0.32091249  0.27183865  0.53183500     0.12230
H1465       H  0.32112394  0.22266542  0.53114254     0.12230
H1466       H  0.40711350  0.22290462  0.03626330     0.12230
C1467       C  0.48047920  0.38824159  0.49586376    -0.13900
C1468       C  0.47003196  0.36943178  0.01394957     0.08250
C1469       C  0.48599311  0.34758481  0.02157125    -0.13900
C1470       C  0.51180094  0.34462183  0.01114446    -0.13900
C1471       C  0.52184325  0.36332013  0.49287219     0.08250
C1472       C  0.50614380  0.38524836  0.48552176    -0.13900
H1473       H  0.46874175  0.40535907  0.48962164     0.12230
H1474       H  0.47840223  0.33265182  0.03519582     0.12230
H1475       H  0.52406352  0.32793843  0.01754501     0.12230
H1476       H  0.51393375  0.40030119  0.47211859     0.12230
C1477       C  0.35930996  0.49956806  0.02477948    -0.13900
C1478       C  0.37561297  0.47997847  0.01321022     0.08250
C1479       C  0.39282917  0.48750952  0.99234440    -0.13900
C1480       C  0.39381070  0.51401628  0.98335882    -0.13900
C1481       C  0.37751562  0.53363039  0.49494072     0.08250
C1482       C  0.36018995  0.52603898  0.51571128    -0.13900
H1483       H  0.34570983  0.49441581  0.04067402     0.12230
H1484       H  0.40569799  0.47288472  0.98293094     0.12230
H1485       H  0.40747629  0.51916737  0.96752136     0.12230
H1486       H  0.34735682  0.54063748  0.52520688     0.12230
C1487       C  0.34363093  0.39371103  0.42220160    -0.13900
C1488       C  0.35147012  0.37082572  0.43628992     0.08250
C1489       C  0.36672536  0.35114609  0.42344118    -0.13900
C1490       C  0.37467785  0.35462534  0.39710344    -0.13900
C1491       C  0.36781982  0.37808933  0.38323630     0.08250
C1492       C  0.35163321  0.39728899  0.39588640    -0.13900
H1493       H  0.33283749  0.40964375  0.43211622     0.12230
H1494       H  0.37398625  0.33391127  0.43435957     0.12230
H1495       H  0.38672505  0.33923199  0.38781705     0.12230
H1496       H  0.34540829  0.41527346  0.38557019     0.12230
C1497       C  0.35077952  0.39514631  0.14547938    -0.13900
C1498       C  0.36783142  0.37621015  0.13356922     0.08250
C1499       C  0.37387131  0.35254806  0.14744553    -0.13900
C1500       C  0.36448002  0.34876663  0.17328692    -0.13900
C1501       C  0.34860455  0.36834986  0.18557923     0.08250
C1502       C  0.34132154  0.39125630  0.17125053    -0.13900
H1503       H  0.34506342  0.41323537  0.13505147     0.12230
H1504       H  0.38649297  0.33732759  0.13864339     0.12230
H1505       H  0.37131634  0.33150779  0.18443556     0.12230
H1506       H  0.33003456  0.40711020  0.18074241     0.12230
C1507       C  0.25632067  0.37658967  0.12323660    -0.13900
C1508       C  0.23102997  0.38327080  0.11330424     0.08250
C1509       C  0.22849084  0.38898500  0.08598734    -0.13900
C1510       C  0.25068097  0.38815074  0.06900871    -0.13900
C1511       C  0.27602650  0.38230817  0.07912636     0.08250
C1512       C  0.27867344  0.37661839  0.10638784    -0.13900
H1513       H  0.25889461  0.37199045  0.14406878     0.12230
H1514       H  0.20916481  0.39384324  0.07767150     0.12230
H1515       H  0.24816226  0.39274704  0.04816619     0.12230
H1516       H  0.29814139  0.37213604  0.11462752     0.12230
C1517       C  0.76701504  0.13742510  0.36906000    -0.13900
C1518       C  0.78095506  0.13940742  0.34501396     0.08250
C1519       C  0.76653307  0.14127880  0.32121004    -0.13900
C1520       C  0.73854641  0.14160988  0.32149208    -0.13900
C1521       C  0.72458259  0.13900005  0.34550038     0.08250
C1522       C  0.73905978  0.13671768  0.36925802    -0.13900
H1523       H  0.77778442  0.13578132  0.38760736     0.12230
H1524       H  0.77695483  0.14276811  0.30244710     0.12230
H1525       H  0.72779882  0.14324384  0.30293401     0.12230
H1526       H  0.72869929  0.13472036  0.38800866     0.12230
C1527       C  0.89616928  0.99305706  0.38425901    -0.13900
C1528       C  0.87108151  0.98139420  0.38856429     0.08250
C1529       C  0.84800606  0.99546647  0.38094780    -0.13900
C1530       C  0.85010885  0.02089039  0.36917713    -0.13900
C1531       C  0.87527834  0.03269788  0.36542976     0.08250
C1532       C  0.89822353  0.01857112  0.37320120    -0.13900
H1533       H  0.91424961  0.98240073  0.38958365     0.12230
H1534       H  0.82848653  0.98654061  0.38351239     0.12230
H1535       H  0.83211990  0.03168758  0.36386477     0.12230
H1536       H  0.91781715  0.02742069  0.37086639     0.12230
C1537       C  0.00692472  0.13171481  0.35140811    -0.13900
C1538       C  0.98600550  0.13155414  0.36980586     0.08250
C1539       C  0.99204702  0.13039730  0.39707827    -0.13900
C1540       C  0.01856556  0.12903311  0.40577339    -0.13900
C1541       C  0.03941826  0.12802018  0.38729072     0.08250
C1542       C  0.03334677  0.12960768  0.36005678    -0.13900
H1543       H  0.00281025  0.13255850  0.33034448     0.12230
H1544       H  0.97619375  0.13044700  0.41169113     0.12230
H1545       H  0.02271380  0.12788877  0.42681384     0.12230
H1546       H  0.04912946  0.12914056  0.34537574     0.12230
C1547       C  0.76737107  0.13884392  0.07148962    -0.13900
C1548       C  0.78142577  0.13619935  0.09541301     0.08250
C1549       C  0.76754852  0.13492040  0.11948599    -0.13900
C1550       C  0.73981981  0.13606664  0.11960293    -0.13900
C1551       C  0.72578923  0.13777720  0.09560852     0.08250
C1552       C  0.73963847  0.13926090  0.07156385    -0.13900
H1553       H  0.77780327  0.13970209  0.05269022     0.12230
H1554       H  0.77812499  0.13293530  0.13811251     0.12230
H1555       H  0.72930694  0.13468502  0.13832982     0.12230
H1556       H  0.72900842  0.14060911  0.05291040     0.12230
C1557       C  0.90388261  0.01519995  0.12138306    -0.13900
C1558       C  0.88121553  0.02933905  0.11281124     0.08250
C1559       C  0.85597401  0.01754317  0.11590657    -0.13900
C1560       C  0.85331791  0.99224767  0.12745594    -0.13900
C1561       C  0.87580478  0.97832106  0.13683940     0.08250
C1562       C  0.90118487  0.98997647  0.13349743    -0.13900
H1563       H  0.92349003  0.02416683  0.11981772     0.12230
H1564       H  0.83815107  0.02824292  0.10986185     0.12230
H1565       H  0.83352964  0.98378451  0.12947405     0.12230
H1566       H  0.91893802  0.97954663  0.14013308     0.12230
C1567       C  0.00076934  0.11390179  0.10637518    -0.13900
C1568       C  0.98264001  0.13179292  0.11792566     0.08250
C1569       C  0.99081675  0.14680450  0.14017121    -0.13900
C1570       C  0.01672423  0.14401826  0.15048472    -0.13900
C1571       C  0.03493198  0.12629348  0.13861195     0.08250
C1572       C  0.02650294  0.11124018  0.11650130    -0.13900
H1573       H  0.99510987  0.10195798  0.08936924     0.12230
H1574       H  0.97709966  0.16050199  0.14976834     0.12230
H1575       H  0.02261208  0.15599744  0.16737876     0.12230
H1576       H  0.03992422  0.09738261  0.10671694     0.12230
C1577       C  0.85970763  0.12553608  0.48383505    -0.13900
C1578       C  0.88432340  0.12618721  0.99732863     0.08250
C1579       C  0.90621435  0.13856526  0.48507281    -0.13900
C1580       C  0.90376454  0.14902021  0.45941080    -0.13900
C1581       C  0.87936081  0.14756332  0.44573401     0.08250
C1582       C  0.85729084  0.13606277  0.45831680    -0.13900
H1583       H  0.84232166  0.11642399  0.49285521     0.12230
H1584       H  0.92520594  0.13998953  0.99520970     0.12230
H1585       H  0.92137053  0.15671092  0.44953641     0.12230
H1586       H  0.83869891  0.13345442  0.44766144     0.12230
C1587       C  0.90813087  0.14414631  0.23268231    -0.13900
C1588       C  0.88745251  0.13115417  0.24661015     0.08250
C1589       C  0.86321970  0.12624237  0.23358113    -0.13900
C1590       C  0.85998767  0.13336794  0.20710923    -0.13900
C1591       C  0.88087573  0.14553495  0.19298087     0.08250
C1592       C  0.90485176  0.15129403  0.20603850    -0.13900
H1593       H  0.92687812  0.14871521  0.24232946     0.12230
H1594       H  0.84665715  0.11691234  0.24382349     0.12230
H1595       H  0.84142034  0.12838635  0.19727916     0.12230
H1596       H  0.92147239  0.15994931  0.19530637     0.12230
C1597       C  0.76693702  0.35150452  0.99463151    -0.13900
C1598       C  0.78154132  0.35608500  0.47137964     0.08250
C1599       C  0.76815379  0.36123803  0.44753791    -0.13900
C1600       C  0.74027729  0.36210223  0.44702304    -0.13900
C1601       C  0.72559666  0.35702357  0.47019302     0.08250
C1602       C  0.73907671  0.35151177  0.49395394    -0.13900
H1603       H  0.77711814  0.34774469  0.01321194     0.12230
H1604       H  0.77928099  0.36506574  0.42951064     0.12230
H1605       H  0.73015944  0.36631302  0.42850569     0.12230
H1606       H  0.72803683  0.34771765  0.01204017     0.12230
C1607       C  0.85156242  0.47729460  0.45419275    -0.13900
C1608       C  0.87555436  0.46288353  0.45156221     0.08250
C1609       C  0.89673137  0.47440883  0.43724367    -0.13900
C1610       C  0.89409846  0.49972746  0.42588656    -0.13900
C1611       C  0.87005686  0.51386212  0.42802672     0.08250
C1612       C  0.84880002  0.50263094  0.44237128    -0.13900
H1613       H  0.83480031  0.46870113  0.46473935     0.12230
H1614       H  0.91540756  0.46373616  0.43473353     0.12230
H1615       H  0.91096947  0.50845545  0.41559240     0.12230
H1616       H  0.83039397  0.51373630  0.44497635     0.12230
C1617       C  0.99076885  0.35270090  0.42349115    -0.13900
C1618       C  0.98307122  0.36543775  0.44715662     0.08250
C1619       C  0.00147906  0.38117938  0.46080335    -0.13900
C1620       C  0.02729595  0.38423456  0.45097995    -0.13900
C1621       C  0.03546650  0.37116440  0.42750818     0.08250
C1622       C  0.01692051  0.35524223  0.41388580    -0.13900
H1623       H  0.97652420  0.34076358  0.41251491     0.12230
H1624       H  0.99566930  0.39167013  0.47870431     0.12230
H1625       H  0.04096754  0.39670961  0.46207257     0.12230
H1626       H  0.02260044  0.34479438  0.39593890     0.12230
C1627       C  0.90751340  0.26430527  0.03461504    -0.13900
C1628       C  0.89032330  0.26727883  0.01258176     0.08250
C1629       C  0.87147124  0.24715942  0.00771901    -0.13900
C1630       C  0.86984922  0.22473282  0.02431510    -0.13900
C1631       C  0.88687020  0.22180431  0.04644852     0.08250
C1632       C  0.90574543  0.24190142  0.05138625    -0.13900
H1633       H  0.92209102  0.27958507  0.03925230     0.12230
H1634       H  0.85770485  0.24887324  0.99125805     0.12230
H1635       H  0.85499174  0.20967720  0.01982335     0.12230
H1636       H  0.91924376  0.24023852  0.06806791     0.12230
C1637       C  0.76567140  0.38468289  0.22010444    -0.13900
C1638       C  0.77982675  0.36044165  0.22163305     0.08250
C1639       C  0.76557100  0.33623147  0.22248662    -0.13900
C1640       C  0.73763515  0.33629892  0.22208952    -0.13900
C1641       C  0.72349608  0.36054739  0.22019100     0.08250
C1642       C  0.73781024  0.38472060  0.21908525    -0.13900
H1643       H  0.77617128  0.40361760  0.21934089     0.12230
H1644       H  0.77602711  0.31727109  0.22382058     0.12230
H1645       H  0.72711085  0.31738330  0.22286528     0.12230
H1646       H  0.72744041  0.40372676  0.21770017     0.12230
C1647       C  0.89531954  0.47481599  0.17991411    -0.13900
C1648       C  0.87778968  0.46507838  0.19955019     0.08250
C1649       C  0.85775522  0.48220525  0.20915249    -0.13900
C1650       C  0.85501459  0.50822502  0.19897377    -0.13900
C1651       C  0.87237967  0.51782152  0.17910076     0.08250
C1652       C  0.89273367  0.50085050  0.16992516    -0.13900
H1653       H  0.91098009  0.46216205  0.17198664     0.12230
H1654       H  0.84378672  0.47528944  0.22404008     0.12230
H1655       H  0.83929677  0.52087805  0.20678302     0.12230
H1656       H  0.90659203  0.50760890  0.15486490     0.12230
C1657       C  0.00443565  0.36608854  0.21616320    -0.13900
C1658       C  0.98363598  0.36500283  0.19767881     0.08250
C1659       C  0.98988602  0.36469720  0.17041924    -0.13900
C1660       C  0.01645096  0.36579904  0.16181323    -0.13900
C1661       C  0.03717828  0.36790493  0.18031774     0.08250
C1662       C  0.03089920  0.36783144  0.20756616    -0.13900
H1663       H  0.00020218  0.36639615  0.23722151     0.12230
H1664       H  0.97416821  0.36368186  0.15572157     0.12230
H1665       H  0.02072224  0.36579248  0.14076366     0.12230
H1666       H  0.04654044  0.36918473  0.22231872     0.12230
C1667       C  0.89833259  0.34530606  0.33224359    -0.13900
C1668       C  0.88066850  0.36355416  0.32009984     0.08250
C1669       C  0.85802160  0.37209151  0.33418660    -0.13900
C1670       C  0.85411503  0.36393447  0.36040770    -0.13900
C1671       C  0.87244170  0.34670389  0.37281234     0.08250
C1672       C  0.89422404  0.33695615  0.35835890    -0.13900
H1673       H  0.91559304  0.33772505  0.32169340     0.12230
H1674       H  0.84376431  0.38568025  0.32522922     0.12230
H1675       H  0.83774455  0.37249873  0.37162734     0.12230
H1676       H  0.90915110  0.32453242  0.36790517     0.12230
C1677       C  0.90108307  0.34575808  0.08423667    -0.13900
C1678       C  0.88137863  0.36091863  0.07114973     0.08250
C1679       C  0.85703248  0.36576846  0.08421457    -0.13900
C1680       C  0.85318278  0.35708352  0.11031213    -0.13900
C1681       C  0.87341203  0.34310919  0.12369992     0.08250
C1682       C  0.89712786  0.33700188  0.11024233    -0.13900
H1683       H  0.91982040  0.34104915  0.07457868     0.12230
H1684       H  0.84120511  0.37686251  0.07453121     0.12230
H1685       H  0.83522051  0.36305841  0.12073738     0.12230
H1686       H  0.91345174  0.32729988  0.12058756     0.12230
C1687       C  0.86316803  0.25913647  0.27630162    -0.13900
C1688       C  0.88729488  0.27009337  0.26692558     0.08250
C1689       C  0.91137700  0.26014142  0.27734340    -0.13900
C1690       C  0.91145232  0.23949875  0.29614055    -0.13900
C1691       C  0.88743572  0.22856942  0.30568089     0.08250
C1692       C  0.86323262  0.23872541  0.29563643    -0.13900
H1693       H  0.84425588  0.26677500  0.26913846     0.12230
H1694       H  0.93029606  0.26835054  0.27088660     0.12230
H1695       H  0.93044656  0.23185818  0.30310674     0.12230
H1696       H  0.84441654  0.23027833  0.30207246     0.12230
Zn1697     Zn  0.91126711  0.34993165  0.74438656     1.49720
Zn1698     Zn  0.86138526  0.33211623  0.70923630     1.49360
Zn1699     Zn  0.85994092  0.38865234  0.73992546     1.49110
Zn1700     Zn  0.89916217  0.38139198  0.69307827     1.49480
O1701       O  0.88256077  0.36281033  0.72166208    -1.84680
O1702       O  0.90645244  0.31099292  0.75295555    -0.75310
O1703       O  0.82212573  0.34025755  0.71388648    -0.75130
O1704       O  0.86495697  0.38092472  0.77895094    -0.74650
O1705       O  0.86871456  0.29903254  0.73312615    -0.75330
O1706       O  0.90646932  0.36484131  0.78076579    -0.74930
O1707       O  0.82130052  0.38079335  0.73208623    -0.75510
O1708       O  0.89234467  0.42054965  0.69308504    -0.74900
O1709       O  0.86692568  0.32774865  0.66862858    -0.75660
O1710       O  0.86640568  0.42778371  0.72796963    -0.75050
O1711       O  0.88524916  0.36760640  0.66016130    -0.75510
O1712       O  0.93823058  0.37522906  0.69082732    -0.75420
O1713       O  0.94868657  0.35578606  0.72894883    -0.75210
C1714       C  0.88761116  0.29428950  0.74955876     0.76580
C1715       C  0.80930038  0.36049579  0.72255492     0.77070
C1716       C  0.88444908  0.37093106  0.79195264     0.76030
C1717       C  0.87909016  0.43644497  0.70767783     0.76400
C1718       C  0.87488476  0.34588675  0.65245460     0.77540
C1719       C  0.95545182  0.36529064  0.70641865     0.76590
Zn1720     Zn  0.91201066  0.34919812  0.99474647     1.49720
Zn1721     Zn  0.86357247  0.33086490  0.95728905     1.49360
Zn1722     Zn  0.85980470  0.38583558  0.99122748     1.49110
Zn1723     Zn  0.89893742  0.38076326  0.94380426     1.49480
O1724       O  0.88312148  0.36139076  0.97202760    -1.84680
O1725       O  0.90781996  0.31013277  0.00230731    -0.75310
O1726       O  0.82400368  0.33808483  0.96123950    -0.75130
O1727       O  0.86534137  0.37821033  0.53010206    -0.74650
O1728       O  0.87242883  0.29697892  0.97919377    -0.75330
O1729       O  0.90713729  0.36307132  0.53166282    -0.74930
O1730       O  0.82182758  0.37607126  0.98433625    -0.75510
O1731       O  0.89261595  0.41954855  0.94606388    -0.74900
O1732       O  0.86959849  0.32814856  0.91681438    -0.75660
O1733       O  0.86387981  0.42514838  0.97910622    -0.75050
O1734       O  0.88324288  0.37008311  0.91044021    -0.75510
O1735       O  0.93769187  0.37387449  0.94009229    -0.75420
O1736       O  0.94899627  0.35615249  0.97892558    -0.75210
C1737       C  0.89043459  0.29250241  0.99669360     0.76580
C1738       C  0.81068109  0.35672844  0.97232878     0.77070
C1739       C  0.88504304  0.36858137  0.54300582     0.76030
C1740       C  0.87763172  0.43454231  0.95987408     0.76400
C1741       C  0.87475709  0.34800568  0.90160794     0.77540
C1742       C  0.95516798  0.36487914  0.95592856     0.76590
Zn1743     Zn  0.86104899  0.14211387  0.56677292     1.49720
Zn1744     Zn  0.90122751  0.16172370  0.61055399     1.49360
Zn1745     Zn  0.86075662  0.11266248  0.61829100     1.49110
Zn1746     Zn  0.90924654  0.10609109  0.57818501     1.49480
O1747       O  0.88393587  0.13075624  0.59456002    -1.84680
O1748       O  0.87188968  0.17770007  0.55362074    -0.75310
O1749       O  0.88990348  0.16414424  0.64983713    -0.75130
O1750       O  0.82217632  0.12041093  0.61290658    -0.74650
O1751       O  0.89669706  0.19527301  0.58576684    -0.75330
O1752       O  0.82315321  0.14426036  0.57599209    -0.74930
O1753       O  0.86928757  0.12472068  0.65370139    -0.75510
O1754       O  0.90039842  0.06688506  0.58934436    -0.74900
O1755       O  0.94033251  0.15320997  0.61458960    -0.75660
O1756       O  0.86645888  0.07356235  0.61713309    -0.75050
O1757       O  0.94584336  0.11450762  0.59333562    -0.75510
O1758       O  0.90753889  0.11424149  0.53776140    -0.75420
O1759       O  0.86369468  0.11633035  0.53782808    -0.75210
C1760       C  0.88517811  0.19712741  0.56305617     0.76580
C1761       C  0.87968469  0.14539432  0.66393691     0.77070
C1762       C  0.81040475  0.13367791  0.59492046     0.76030
C1763       C  0.88282911  0.05800366  0.60560755     0.76400
C1764       C  0.95490625  0.13343629  0.60779793     0.77540
C1765       C  0.88550525  0.11752861  0.52533806     0.76590
Zn1766     Zn  0.86322390  0.16389225  0.86166241     1.49720
Zn1767     Zn  0.91324936  0.14852908  0.82443754     1.49360
Zn1768     Zn  0.90195294  0.11379467  0.87299107     1.49110
Zn1769     Zn  0.86090749  0.11047856  0.82635438     1.49480
O1770       O  0.88427970  0.13438754  0.84629904    -1.84680
O1771       O  0.86979033  0.19826565  0.83894455    -0.75310
O1772       O  0.95076778  0.14344406  0.83980547    -0.75130
O1773       O  0.89008667  0.12581660  0.90724313    -0.74650
O1774       O  0.90702245  0.18733217  0.81739521    -0.75330
O1775       O  0.87081118  0.16584047  0.90219562    -0.74930
O1776       O  0.94107064  0.11894764  0.87505308    -0.75510
O1777       O  0.86366864  0.07128094  0.83922727    -0.74900
O1778       O  0.91027226  0.13454532  0.78754928    -0.75660
O1779       O  0.89393280  0.07520757  0.87115270    -0.75050
O1780       O  0.86966742  0.11632298  0.78778685    -0.75510
O1781       O  0.82216772  0.12107140  0.83073585    -0.77020
O1782       O  0.82347452  0.15570511  0.85840055    -0.75210
C1783       C  0.88820347  0.20376843  0.82213132     0.76580
C1784       C  0.95790849  0.13134978  0.86092612     0.77070
C1785       C  0.88003591  0.14693276  0.91680532     0.76030
C1786       C  0.87781446  0.06109578  0.85776555     0.76400
C1787       C  0.88957495  0.12629308  0.77542360     0.77540
C1788       C  0.81041470  0.13875211  0.84469241     0.76590
Zn1789     Zn  0.35625191  0.40686029  0.55862316     1.49720
Zn1790     Zn  0.39330700  0.35485578  0.55393636     1.49360
Zn1791     Zn  0.33771330  0.35824798  0.52128383     1.49110
Zn1792     Zn  0.38837598  0.39486013  0.50752299     1.49480
O1793       O  0.36855983  0.37834500  0.53526763    -1.84680
O1794       O  0.37253876  0.40243461  0.59454065    -0.75310
O1795       O  0.38420354  0.31677881  0.54588462    -0.75130
O1796       O  0.30375141  0.36695726  0.54324577    -0.74650
O1797       O  0.38514779  0.35969659  0.59277989    -0.75330
O1798       O  0.31808833  0.40042162  0.56866163    -0.74930
O1799       O  0.34451273  0.31840889  0.52624832    -0.75510
O1800       O  0.37453043  0.38316735  0.97363887    -0.74900
O1801       O  0.43268564  0.35942860  0.54260822    -0.75660
O1802       O  0.33501977  0.36387569  0.98064453    -0.75050
O1803       O  0.42647851  0.38556284  0.50764947    -0.75510
O1804       O  0.38557734  0.43425498  0.50724260    -0.75420
O1805       O  0.36157543  0.44458741  0.54269933    -0.75210
C1806       C  0.37641216  0.37983449  0.60572598     0.76580
C1807       C  0.36412874  0.30514591  0.53564599     0.77070
C1808       C  0.30023080  0.38356939  0.56226553     0.76030
C1809       C  0.35331218  0.37254389  0.96511881     0.76400
C1810       C  0.44173378  0.37167041  0.52223376     0.77540
C1811       C  0.37418108  0.45155835  0.52174141     0.76590
Zn1812     Zn  0.33491300  0.35711328  0.77076552     1.49720
Zn1813     Zn  0.39090153  0.35479836  0.80345687     1.49360
Zn1814     Zn  0.38575345  0.39312200  0.75624350     1.49110
Zn1815     Zn  0.35326762  0.40641276  0.80694287     1.49480
O1816       O  0.36582564  0.37747488  0.78433144    -1.84680
O1817       O  0.34203140  0.31766112  0.77675692    -0.75310
O1818       O  0.43034317  0.35974545  0.79235000    -0.75130
O1819       O  0.37103686  0.38171846  0.72281816    -0.74650
O1820       O  0.38191254  0.31635997  0.79616083    -0.75330
O1821       O  0.33206294  0.36152038  0.72997853    -0.74930
O1822       O  0.42344428  0.38210914  0.75504919    -0.75510
O1823       O  0.35715758  0.44354994  0.78938114    -0.74900
O1824       O  0.38332364  0.36076409  0.84214128    -0.75660
O1825       O  0.38385457  0.43258430  0.75589423    -0.75050
O1826       O  0.36965501  0.40322931  0.84315083    -0.75510
O1827       O  0.31552111  0.39967030  0.81734685    -0.75420
O1828       O  0.30082191  0.36603321  0.79245703    -0.75210
C1829       C  0.36170955  0.30458914  0.78626205     0.76580
C1830       C  0.43893251  0.36961182  0.77057653     0.77070
C1831       C  0.35012505  0.37050088  0.71438215     0.76030
C1832       C  0.37100524  0.44996287  0.76906240     0.76400
C1833       C  0.37468536  0.38109413  0.85484514     0.77540
C1834       C  0.29755397  0.38282481  0.81135956     0.76590
Zn1835     Zn  0.11869576  0.39401660  0.68610653     1.49720
Zn1836     Zn  0.11315534  0.35578973  0.63902224     1.49360
Zn1837     Zn  0.15066937  0.40709437  0.63471204     1.49110
Zn1838     Zn  0.16948054  0.35796990  0.67111478     1.49480
O1839       O  0.13842871  0.37840103  0.65775464    -1.84680
O1840       O  0.08086429  0.38325014  0.68756662    -0.75310
O1841       O  0.12048932  0.36084618  0.60018319    -0.75130
O1842       O  0.14518988  0.44432380  0.65137386    -0.74650
O1843       O  0.07388575  0.36122446  0.65012963    -0.75330
O1844       O  0.12083683  0.43346232  0.68650619    -0.74930
O1845       O  0.13504913  0.40294085  0.59835893    -0.75510
O1846       O  0.20337258  0.36666846  0.64894347    -0.74900
O1847       O  0.12179806  0.31749714  0.64703146    -0.75660
O1848       O  0.18894046  0.40113530  0.62493157    -0.75050
O1849       O  0.16201440  0.31850586  0.66575339    -0.75510
O1850       O  0.17289549  0.36272275  0.71184735    -0.75420
O1851       O  0.13377326  0.38260053  0.71942431    -0.75210
C1852       C  0.06532289  0.37098808  0.67194912     0.76580
C1853       C  0.12949868  0.38075004  0.58711501     0.77070
C1854       C  0.13249353  0.45092805  0.67239817     0.76030
C1855       C  0.20685300  0.38395606  0.63048836     0.76400
C1856       C  0.14200255  0.30559245  0.65683944     0.77540
C1857       C  0.15495071  0.37163308  0.72764502     0.76590
Zn1858     Zn  0.11726367  0.39483187  0.93479617     1.49720
Zn1859     Zn  0.11230692  0.35551758  0.88807804     1.49360
Zn1860     Zn  0.14880065  0.40777749  0.88382524     1.49110
Zn1861     Zn  0.16778433  0.35895296  0.92100528     1.49480
O1862       O  0.13691945  0.37890331  0.90687551    -1.84680
O1863       O  0.07918230  0.38667295  0.93371881    -0.75310
O1864       O  0.12083916  0.36053827  0.84937528    -0.75130
O1865       O  0.14360536  0.44539946  0.90045650    -0.74650
O1866       O  0.07276830  0.36072807  0.89877461    -0.75330
O1867       O  0.12129161  0.43402417  0.93666018    -0.74930
O1868       O  0.13267446  0.40346855  0.84770327    -0.75510
O1869       O  0.20167817  0.36791249  0.89926976    -0.74900
O1870       O  0.12142560  0.31727457  0.89629888    -0.75660
O1871       O  0.18684981  0.40119182  0.87377131    -0.75050
O1872       O  0.16130914  0.31923455  0.91557056    -0.75510
O1873       O  0.17017094  0.36394711  0.96176344    -0.75420
O1874       O  0.12961507  0.38108926  0.96839721    -0.75210
C1875       C  0.06378169  0.37309122  0.91910761     0.76580
C1876       C  0.12924915  0.38082612  0.83646529     0.77070
C1877       C  0.13205072  0.45176220  0.92221511     0.76030
C1878       C  0.20487530  0.38440977  0.88008809     0.76400
C1879       C  0.14178973  0.30581806  0.90631560     0.77540
C1880       C  0.15102844  0.37098867  0.97710104     0.76590
Zn1881     Zn  0.14797302  0.61630600  0.69757947     1.49720
Zn1882     Zn  0.09956678  0.60630750  0.73709904     1.49360
Zn1883     Zn  0.14736517  0.64620032  0.74845496     1.49110
Zn1884     Zn  0.10281514  0.66181254  0.70537889     1.49480
O1885       O  0.12380169  0.63283294  0.72182199    -1.84680
O1886       O  0.14520355  0.57695471  0.69900936    -0.75310
O1887       O  0.09859357  0.61276256  0.77714884    -0.75130
O1888       O  0.18674895  0.64411149  0.74096215    -0.74650
O1889       O  0.11147655  0.56832656  0.72631271    -0.75330
O1890       O  0.18689023  0.62649658  0.70085577    -0.74930
O1891       O  0.14002655  0.62821963  0.78202486    -0.75510
O1892       O  0.10669679  0.69701976  0.72824097    -0.74900
O1893       O  0.06220780  0.61074827  0.72195778    -0.75660
O1894       O  0.13839152  0.68372186  0.75618629    -0.75050
O1895       O  0.06380149  0.65063417  0.70240832    -0.75510
O1896       O  0.11105145  0.66270851  0.66546406    -0.75420
O1897       O  0.13411714  0.62461670  0.66287336    -0.75210
C1898       C  0.12944310  0.56046223  0.71000778     0.76580
C1899       C  0.11789417  0.62065233  0.79168765     0.77070
C1900       C  0.19936741  0.63639459  0.72049864     0.76030
C1901       C  0.12197257  0.70137271  0.74828283     0.76400
C1902       C  0.05123554  0.62928035  0.70838960     0.77540
C1903       C  0.11989750  0.64265371  0.65224560     0.76590
Zn1904     Zn  0.14412828  0.61794583  0.94996569     1.49720
Zn1905     Zn  0.09521868  0.60696455  0.98687700     1.49360
Zn1906     Zn  0.14072857  0.65049872  0.99980845     1.49110
Zn1907     Zn  0.09909360  0.66343463  0.95429497     1.49480
O1908       O  0.11898944  0.63474059  0.97278067    -1.84680
O1909       O  0.14143077  0.57851468  0.94932051    -0.75310
O1910       O  0.09293130  0.61141007  0.52719119    -0.75130
O1911       O  0.18017338  0.64391355  0.99705457    -0.74650
O1912       O  0.10717624  0.56899514  0.97546965    -0.75330
O1913       O  0.18184366  0.62781807  0.95624823    -0.74930
O1914       O  0.12728139  0.63900189  0.53391748    -0.75510
O1915       O  0.10140462  0.69944525  0.97536965    -0.74900
O1916       O  0.05853140  0.61269355  0.97085131    -0.75660
O1917       O  0.13485827  0.68939595  0.50258015    -0.75050
O1918       O  0.06076970  0.65303773  0.95223513    -0.75510
O1919       O  0.10818060  0.66323742  0.91421166    -0.75420
O1920       O  0.13486085  0.62770890  0.91460253    -0.75210
C1921       C  0.12555658  0.56160950  0.95942659     0.76580
C1922       C  0.10768465  0.62551018  0.54239107     0.77070
C1923       C  0.19341035  0.63646534  0.97688221     0.76030
C1924       C  0.11744897  0.70576707  0.99412467     0.76400
C1925       C  0.04787658  0.63185771  0.95781185     0.77540
C1926       C  0.12118902  0.64483774  0.90211919     0.76590
Zn1927     Zn  0.14481649  0.85201221  0.56644534     1.49720
Zn1928     Zn  0.10155572  0.83483525  0.60973917     1.49360
Zn1929     Zn  0.14523938  0.88069774  0.61809138     1.49110
Zn1930     Zn  0.09794114  0.89026621  0.57677711     1.49480
O1931       O  0.12162665  0.86427813  0.59380162    -1.84680
O1932       O  0.13329118  0.81636057  0.55484955    -0.75310
O1933       O  0.11228571  0.83123596  0.64944274    -0.75130
O1934       O  0.18381291  0.87190337  0.61341471    -0.74650
O1935       O  0.10359280  0.80127398  0.58421255    -0.75330
O1936       O  0.18304784  0.85025699  0.57521749    -0.74930
O1937       O  0.13546249  0.86909686  0.65311027    -0.75510
O1938       O  0.11002231  0.92875544  0.58684838    -0.74900
O1939       O  0.06343178  0.84721359  0.61431899    -0.75660
O1940       O  0.14063469  0.91965747  0.61750952    -0.75050
O1941       O  0.06068802  0.88600336  0.59268722    -0.75510
O1942       O  0.09841849  0.88023953  0.53673754    -0.75420
O1943       O  0.14207190  0.87607206  0.53605838    -0.75210
C1944       C  0.11736554  0.79832670  0.56285430     0.76580
C1945       C  0.12353112  0.84940120  0.66353429     0.77070
C1946       C  0.19568038  0.85970344  0.59477998     0.76030
C1947       C  0.12640373  0.93637905  0.60487175     0.76400
C1948       C  0.05047983  0.86820661  0.60780440     0.77540
C1949       C  0.11995461  0.87486662  0.52413635     0.76590
Zn1950     Zn  0.14027036  0.88663190  0.82580294     1.49720
Zn1951     Zn  0.08913124  0.84855105  0.82342382     1.49360
Zn1952     Zn  0.13916506  0.83167586  0.85986815     1.49110
Zn1953     Zn  0.10151711  0.88173621  0.87360056     1.49480
O1954       O  0.11805059  0.86185697  0.84574871    -1.84680
O1955       O  0.13225524  0.88029170  0.78718199    -0.75310
O1956       O  0.09535204  0.81027216  0.81428479    -0.75130
O1957       O  0.17870324  0.84018936  0.85557105    -0.74650
O1958       O  0.09099596  0.86388199  0.78691580    -0.75330
O1959       O  0.17906510  0.87698938  0.83072031    -0.74930
O1960       O  0.13188636  0.79825681  0.83629044    -0.75510
O1961       O  0.11071897  0.86597859  0.90701213    -0.74900
O1962       O  0.05242753  0.85301728  0.83995699    -0.75660
O1963       O  0.13238955  0.82758449  0.90056202    -0.75050
O1964       O  0.06212197  0.87923742  0.87407794    -0.75510
O1965       O  0.11345570  0.91940247  0.87560340    -0.75420
O1966       O  0.13635947  0.92577980  0.83844386    -0.75210
C1967       C  0.11212989  0.87092013  0.77477417     0.76580
C1968       C  0.11394946  0.79354742  0.81875492     0.77070
C1969       C  0.19136042  0.85844481  0.84308644     0.76030
C1970       C  0.12143771  0.84491174  0.91587007     0.76400
C1971       C  0.04537381  0.86606674  0.86051937     0.77540
C1972       C  0.12667248  0.93452752  0.86025560     0.76590
Zn1973     Zn  0.66792097  0.63522281  0.52122636     1.49720
Zn1974     Zn  0.65009740  0.58670190  0.55868948     1.49360
Zn1975     Zn  0.61221115  0.63834161  0.55338118     1.49110
Zn1976     Zn  0.61731532  0.59696439  0.50797140     1.49480
O1977       O  0.63718852  0.61476303  0.53506742    -1.84680
O1978       O  0.70212713  0.62645740  0.54310561    -0.75310
O1979       O  0.63301810  0.59092474  0.59415601    -0.75130
O1980       O  0.62088669  0.67669094  0.54485917    -0.74650
O1981       O  0.68820173  0.59288605  0.56841064    -0.75330
O1982       O  0.66098511  0.67518951  0.52598808    -0.74930
O1983       O  0.62070539  0.63374267  0.59230390    -0.75510
O1984       O  0.57900592  0.60683266  0.50716039    -0.74900
O1985       O  0.64640716  0.54894976  0.54337993    -0.75660
O1986       O  0.57278438  0.63301899  0.54207561    -0.75050
O1987       O  0.62011903  0.55738608  0.50897589    -0.75510
O1988       O  0.63250019  0.60668456  0.97403086    -0.75420
O1989       O  0.67051091  0.62897072  0.98067575    -0.75210
C1990       C  0.70614754  0.60957566  0.56186950     0.76580
C1991       C  0.62936935  0.61356190  0.60528968     0.77070
C1992       C  0.64110370  0.68841323  0.53491002     0.76030
C1993       C  0.56369353  0.62078633  0.52170596     0.76400
C1994       C  0.63318675  0.54112312  0.52324993     0.77540
C1995       C  0.65329992  0.61805628  0.96533639     0.76590
Zn1996     Zn  0.65318706  0.59019234  0.80619623     1.49720
Zn1997     Zn  0.67113478  0.63947028  0.76945394     1.49360
Zn1998     Zn  0.62001304  0.60340420  0.75649063     1.49110
Zn1999     Zn  0.61709896  0.64185499  0.80423902     1.49480
O2000       O  0.64074201  0.61912622  0.78381931    -1.84680
O2001       O  0.69048291  0.59794190  0.81709916    -0.75310
O2002       O  0.67422887  0.63316695  0.72899186    -0.75130
O2003       O  0.62060233  0.56364483  0.75675598    -0.74650
O2004       O  0.70479521  0.63170063  0.79197024    -0.75330
O2005       O  0.64970627  0.55331877  0.78841305    -0.74930
O2006       O  0.63496069  0.61324517  0.72262484    -0.75510
O2007       O  0.57761019  0.63682931  0.79473204    -0.74900
O2008       O  0.66351527  0.67912331  0.77374395    -0.75660
O2009       O  0.58289070  0.61612639  0.75610765    -0.75050
O2010       O  0.62557613  0.68026017  0.79658567    -0.75510
O2011       O  0.62594881  0.63551005  0.84252558    -0.75420
O2012       O  0.63584299  0.59210892  0.84202631    -0.75210
C2013       C  0.70804029  0.61528528  0.81122244     0.76580
C2014       C  0.65615006  0.62364043  0.71376896     0.77070
C2015       C  0.63461658  0.54656788  0.76915014     0.76030
C2016       C  0.56828803  0.62810310  0.77283727     0.76400
C2017       C  0.64457056  0.69216360  0.78467252     0.77540
C2018       C  0.63294123  0.61414892  0.85451312     0.76590
Zn2019     Zn  0.83930763  0.59843235  0.67321849     1.49720
Zn2020     Zn  0.89535610  0.59380140  0.64047073     1.49360
Zn2021     Zn  0.85590035  0.64187314  0.63190568     1.49110
Zn2022     Zn  0.88834688  0.63953141  0.68234031     1.49480
O2023       O  0.86971078  0.61754004  0.65775309    -1.84680
O2024       O  0.84973135  0.55959440  0.67607544    -0.75310
O2025       O  0.88605262  0.59645685  0.60065458    -0.75130
O2026       O  0.82004343  0.63122564  0.61951679    -0.74650
O2027       O  0.88869221  0.55598527  0.65506114    -0.75330
O2028       O  0.80511000  0.60199346  0.64910385    -0.74930
O2029       O  0.87863796  0.64014326  0.60031926    -0.75510
O2030       O  0.88585938  0.67864403  0.67449079    -0.74900
O2031       O  0.93477255  0.60379090  0.65048904    -0.75660
O2032       O  0.85440442  0.67968970  0.64363889    -0.75050
O2033       O  0.92655501  0.63004289  0.68510608    -0.75510
O2034       O  0.87302394  0.63326686  0.71714497    -0.75420
O2035       O  0.83601883  0.60886364  0.71265265    -0.75210
C2036       C  0.87004110  0.54583297  0.66921104     0.76580
C2037       C  0.87977454  0.61794743  0.58820466     0.77070
C2038       C  0.80189432  0.61556411  0.62767758     0.76030
C2039       C  0.86995166  0.69151013  0.65959324     0.76400
C2040       C  0.94279405  0.61692622  0.67082107     0.77540
C2041       C  0.85305092  0.62130488  0.72701828     0.76590
Zn2042     Zn  0.85322529  0.58805057  0.88503054     1.49720
Zn2043     Zn  0.88702591  0.59715738  0.93387914     1.49360
Zn2044     Zn  0.89114090  0.63933815  0.88888663     1.49110
Zn2045     Zn  0.83691500  0.63664535  0.92355423     1.49480
O2046       O  0.86677907  0.61602268  0.90808042    -1.84680
O2047       O  0.85413907  0.55032816  0.90136723    -0.75310
O2048       O  0.92481586  0.60677597  0.93397439    -0.75130
O2049       O  0.88332656  0.63258987  0.85023170    -0.74650
O2050       O  0.88470641  0.55787530  0.93216438    -0.75330
O2051       O  0.87097051  0.58978221  0.84963172    -0.74930
O2052       O  0.93043467  0.63409343  0.89980755    -0.75510
O2053       O  0.84419582  0.67658971  0.91896937    -0.74900
O2054       O  0.87304417  0.60562265  0.96838036    -0.75660
O2055       O  0.88228858  0.67815445  0.89635786    -0.75050
O2056       O  0.83556314  0.62938947  0.96420905    -0.75510
O2057       O  0.80231821  0.62956188  0.90182392    -0.75420
O2058       O  0.81659171  0.59776408  0.87431319    -0.75210
C2059       C  0.86943498  0.54205471  0.91984453     0.76580
C2060       C  0.93979422  0.62111373  0.91958538     0.77070
C2061       C  0.87539554  0.61184797  0.83770103     0.76030
C2062       C  0.86296179  0.68987276  0.90803307     0.76400
C2063       C  0.85303502  0.61726362  0.97843544     0.77540
C2064       C  0.79899030  0.61454154  0.88150376     0.76590
Zn2065     Zn  0.64783008  0.90663608  0.50828093     1.49720
Zn2066     Zn  0.61111103  0.85417150  0.51285189     1.49360
Zn2067     Zn  0.66627543  0.85775958  0.54579174     1.49110
Zn2068     Zn  0.61546642  0.89515531  0.55865323     1.49480
O2069       O  0.63552253  0.87799478  0.53147266    -1.84680
O2070       O  0.63161424  0.90228809  0.97232573    -0.75310
O2071       O  0.62050605  0.81586323  0.52086705    -0.75130
O2072       O  0.70002991  0.86584529  0.52340544    -0.74650
O2073       O  0.61864751  0.85962683  0.97394702    -0.75330
O2074       O  0.68572083  0.89954681  0.49817101    -0.74930
O2075       O  0.65955511  0.81773916  0.54166525    -0.75510
O2076       O  0.63040967  0.88554097  0.59260613    -0.74900
O2077       O  0.57179281  0.85871990  0.52415597    -0.75660
O2078       O  0.66927871  0.86464928  0.58616227    -0.75050
O2079       O  0.57771349  0.88497121  0.55904977    -0.75510
O2080       O  0.61694650  0.93461797  0.55812844    -0.75420
O2081       O  0.64293072  0.94468824  0.52409795    -0.75210
C2082       C  0.62710229  0.87989400  0.96101277     0.76580
C2083       C  0.64034060  0.80431580  0.53178370     0.77070
C2084       C  0.70342531  0.88233972  0.50424933     0.76030
C2085       C  0.65159277  0.87498329  0.60139888     0.76400
C2086       C  0.56262182  0.87100229  0.54444046     0.77540
C2087       C  0.62922178  0.95183449  0.54431566     0.76590
Zn2088     Zn  0.66841486  0.86077496  0.79520661     1.49720
Zn2089     Zn  0.61276064  0.85706394  0.76270060     1.49360
Zn2090     Zn  0.61691370  0.89652775  0.80896728     1.49110
Zn2091     Zn  0.64990825  0.90933933  0.75859859     1.49480
O2092       O  0.63733538  0.88054443  0.78137277    -1.84680
O2093       O  0.66252517  0.82109014  0.78917199    -0.75310
O2094       O  0.57302999  0.86193311  0.77329011    -0.75130
O2095       O  0.62935098  0.88262553  0.84258374    -0.74650
O2096       O  0.62204845  0.81889340  0.77107307    -0.75330
O2097       O  0.66985934  0.86511907  0.83607388    -0.74930
O2098       O  0.57837153  0.88891251  0.80763621    -0.75510
O2099       O  0.64583720  0.94642209  0.77568930    -0.74900
O2100       O  0.62115624  0.86263186  0.72400982    -0.75660
O2101       O  0.62114006  0.93570767  0.81067604    -0.75050
O2102       O  0.63284975  0.90567099  0.72291831    -0.75510
O2103       O  0.68818837  0.90377585  0.74865684    -0.75420
O2104       O  0.70275223  0.87061129  0.77416037    -0.75210
C2105       C  0.64276113  0.80762322  0.78055688     0.76580
C2106       C  0.56339451  0.87488455  0.79296942     0.77070
C2107       C  0.65062850  0.87218959  0.85131450     0.76030
C2108       C  0.63334621  0.95293996  0.79679096     0.76400
C2109       C  0.62910979  0.88326636  0.71131968     0.77540
C2110       C  0.70650599  0.88750548  0.75537267     0.76590
Zn2111     Zn  0.89631699  0.90361747  0.67868731     1.49720
Zn2112     Zn  0.85709566  0.85581164  0.68716812     1.49360
Zn2113     Zn  0.84104741  0.89890002  0.64525693     1.49110
Zn2114     Zn  0.89025277  0.85740279  0.63732531     1.49480
O2115       O  0.87111179  0.87971241  0.66122026    -1.84680
O2116       O  0.88541719  0.90207034  0.71824225    -0.75310
O2117       O  0.82116050  0.86673240  0.69899220    -0.75130
O2118       O  0.85188554  0.93765304  0.64206452    -0.74650
O2119       O  0.87967360  0.85821129  0.71873187    -0.75330
O2120       O  0.89125602  0.94079918  0.66232219    -0.74930
O2121       O  0.80645051  0.89569169  0.66899644    -0.75510
O2122       O  0.87575584  0.86379563  0.60225803    -0.74900
O2123       O  0.85563892  0.81790259  0.67588996    -0.75660
O2124       O  0.83844147  0.88797193  0.60583579    -0.75050
O2125       O  0.88734797  0.81826917  0.64524084    -0.75510
O2126       O  0.92842666  0.86694346  0.63529482    -0.75420
O2127       O  0.93566605  0.89334326  0.67004931    -0.75210
C2128       C  0.87914028  0.88054917  0.73062185     0.76580
C2129       C  0.80304475  0.88230609  0.69051377     0.77070
C2130       C  0.87274074  0.95095995  0.64805707     0.76030
C2131       C  0.85593145  0.87560557  0.59185260     0.76400
C2132       C  0.87113456  0.80574620  0.66008419     0.77540
C2133       C  0.94412889  0.88029780  0.64985833     0.76590
Zn2134     Zn  0.84991467  0.90812660  0.93148624     1.49720
Zn2135     Zn  0.88466724  0.89760433  0.88334472     1.49360
Zn2136     Zn  0.88851669  0.85698730  0.92883490     1.49110
Zn2137     Zn  0.83425753  0.85874418  0.89382256     1.49480
O2138       O  0.86389169  0.87961128  0.90930036    -1.84680
O2139       O  0.85230671  0.94537271  0.91410921    -0.75310
O2140       O  0.92123629  0.88386068  0.88023356    -0.75130
O2141       O  0.88168578  0.86459704  0.96731295    -0.74650
O2142       O  0.88603943  0.93699093  0.88688612    -0.75330
O2143       O  0.86636458  0.90654259  0.96763472    -0.74930
O2144       O  0.92771006  0.86171371  0.91776970    -0.75510
O2145       O  0.84239546  0.81883474  0.89831079    -0.74900
O2146       O  0.86857915  0.89193496  0.84928674    -0.75660
O2147       O  0.87988926  0.81810035  0.92195329    -0.75050
O2148       O  0.83228831  0.86655600  0.85321601    -0.75510
O2149       O  0.79961462  0.86574872  0.91563836    -0.75420
O2150       O  0.81269203  0.89935342  0.94152053    -0.75210
C2151       C  0.86970622  0.95326435  0.89734988     0.76580
C2152       C  0.93637010  0.87103086  0.89582444     0.77070
C2153       C  0.87305963  0.88513218  0.97975086     0.76030
C2154       C  0.86117438  0.80596864  0.90980529     0.76400
C2155       C  0.84883160  0.88005708  0.83914385     0.77540
C2156       C  0.79555894  0.88187319  0.93499111     0.76590
Zn2157     Zn  0.64628768  0.11728443  0.57134483     1.49720
Zn2158     Zn  0.64612658  0.14590133  0.62375368     1.49360
Zn2159     Zn  0.60443600  0.16508391  0.58064768     1.49110
Zn2160     Zn  0.59878646  0.10836698  0.61189041     1.49480
O2161       O  0.62312515  0.13429413  0.59596157    -1.84680
O2162       O  0.68483197  0.12412991  0.57734097    -0.75310
O2163       O  0.63531776  0.18165349  0.63667762    -0.75130
O2164       O  0.61475091  0.16867751  0.54110299    -0.74650
O2165       O  0.68422114  0.14705435  0.61485165    -0.75330
O2166       O  0.63793281  0.13079025  0.53653513    -0.74930
O2167       O  0.60850286  0.19844414  0.60568011    -0.75510
O2168       O  0.56180125  0.11580221  0.59692269    -0.74900
O2169       O  0.64331773  0.12086321  0.65327257    -0.75660
O2170       O  0.56548629  0.15556294  0.57724875    -0.75050
O2171       O  0.59970165  0.11606694  0.65235878    -0.75510
O2172       O  0.60899593  0.06963455  0.60000467    -0.75420
O2173       O  0.64035122  0.07832191  0.57005652    -0.75210
C2174       C  0.69678703  0.13650204  0.59576946     0.76580
C2175       C  0.62090857  0.20063921  0.62788535     0.77070
C2176       C  0.62621312  0.15093965  0.52666905     0.76030
C2177       C  0.55177904  0.13499387  0.58337978     0.76400
C2178       C  0.62116589  0.12093893  0.66521554     0.77540
C2179       C  0.62529786  0.06180040  0.58194692     0.76590
Zn2180     Zn  0.64488560  0.11051740  0.86575002     1.49720
Zn2181     Zn  0.64192337  0.16322903  0.82979976     1.49360
Zn2182     Zn  0.60323854  0.11311151  0.81932412     1.49110
Zn2183     Zn  0.59249274  0.14744988  0.86780147     1.49480
O2184       O  0.62124214  0.13376322  0.84552575    -1.84680
O2185       O  0.68349832  0.12083825  0.86035139    -0.75310
O2186       O  0.63287598  0.16554029  0.78951490    -0.75130
O2187       O  0.61169819  0.07465732  0.82157217    -0.74650
O2188       O  0.68178100  0.15492341  0.83202038    -0.75330
O2189       O  0.64160053  0.07115235  0.85400338    -0.74930
O2190       O  0.61378169  0.12546511  0.78479056    -0.75510
O2191       O  0.55501394  0.14377021  0.85244422    -0.74900
O2192       O  0.63603871  0.19722095  0.85326683    -0.75660
O2193       O  0.56407173  0.11819698  0.81780834    -0.75050
O2194       O  0.59960498  0.18556885  0.87573131    -0.75510
O2195       O  0.59481199  0.13247233  0.90434284    -0.75420
O2196       O  0.63683295  0.11789512  0.90422922    -0.75210
C2197       C  0.69507433  0.13821171  0.84589256     0.76580
C2198       C  0.62302351  0.14686727  0.77504948     0.77070
C2199       C  0.62758293  0.06075697  0.83552656     0.76030
C2200       C  0.54757797  0.13136719  0.83167031     0.76400
C2201       C  0.61819002  0.20213625  0.87085575     0.77540
C2202       C  0.61636158  0.12682058  0.91648987     0.76590
Zn2203     Zn  0.59240906  0.35262023  0.69598387     1.49720
Zn2204     Zn  0.64097242  0.33467817  0.73343969     1.49360
Zn2205     Zn  0.64436840  0.38963152  0.70008238     1.49110
Zn2206     Zn  0.60423365  0.38505325  0.74613256     1.49480
O2207       O  0.62094199  0.36515120  0.71879739    -1.84680
O2208       O  0.59773517  0.31388449  0.68779084    -0.75310
O2209       O  0.68073213  0.34117959  0.72830356    -0.75130
O2210       O  0.63964878  0.38065031  0.66143139    -0.74650
O2211       O  0.63185268  0.30020751  0.71246323    -0.75330
O2212       O  0.59714455  0.36772605  0.65961152    -0.74930
O2213       O  0.68243382  0.38096660  0.70858248    -0.75510
O2214       O  0.60953119  0.42414398  0.74324038    -0.74900
O2215       O  0.63556335  0.33348679  0.77414394    -0.75660
O2216       O  0.63918541  0.42908420  0.71094049    -0.75050
O2217       O  0.62063848  0.37525206  0.77934715    -0.75510
O2218       O  0.56561242  0.37698382  0.75016056    -0.75420
O2219       O  0.55509621  0.35769218  0.71200509    -0.75210
C2220       C  0.61454952  0.29594647  0.69424529     0.76580
C2221       C  0.69400397  0.36084083  0.71898906     0.77070
C2222       C  0.61974886  0.37146556  0.64855220     0.76030
C2223       C  0.62482833  0.43889498  0.72951716     0.76400
C2224       C  0.63009241  0.35375203  0.78876121     0.77540
C2225       C  0.54844585  0.36661876  0.73481030     0.76590
Zn2226     Zn  0.59487883  0.34497993  0.94897209     1.49720
Zn2227     Zn  0.64475263  0.32953173  0.98478639     1.49360
Zn2228     Zn  0.64562388  0.38518240  0.95216134     1.49110
Zn2229     Zn  0.60588471  0.37822915  0.99909722     1.49480
O2230       O  0.62320298  0.35941056  0.97108827    -1.84680
O2231       O  0.59951025  0.30579859  0.94338006    -0.75310
O2232       O  0.68363635  0.33879027  0.98149258    -0.75130
O2233       O  0.63873786  0.38029960  0.91323320    -0.74650
O2234       O  0.63903905  0.29615515  0.96093716    -0.75330
O2235       O  0.60086355  0.35683413  0.91166997    -0.74930
O2236       O  0.68435950  0.37594858  0.95713832    -0.75510
O2237       O  0.61310425  0.41703439  0.49909437    -0.74900
O2238       O  0.63868183  0.32527666  0.52513473    -0.75660
O2239       O  0.64106115  0.42387888  0.96569162    -0.75050
O2240       O  0.61902405  0.36472843  0.53243119    -0.75510
O2241       O  0.56675680  0.37302331  0.00046415    -0.75420
O2242       O  0.55710964  0.35167561  0.96312118    -0.75210
C2243       C  0.61947353  0.29023546  0.94573786     0.76580
C2244       C  0.69631721  0.35729016  0.96958124     0.77070
C2245       C  0.62076602  0.36781243  0.90031601     0.76030
C2246       C  0.62757767  0.43259512  0.98540240     0.76400
C2247       C  0.63001598  0.34352734  0.54076527     0.77540
C2248       C  0.54997461  0.36247084  0.98491542     0.76590
Zn2249     Zn  0.40460500  0.60864426  0.74496782     1.49720
Zn2250     Zn  0.36371641  0.60801389  0.69979409     1.49360
Zn2251     Zn  0.36868919  0.66080570  0.73654182     1.49110
Zn2252     Zn  0.41650440  0.64399397  0.69760054     1.49480
O2253       O  0.38764418  0.63078250  0.71967289    -1.84680
O2254       O  0.39817927  0.57011178  0.74060304    -0.75310
O2255       O  0.32595919  0.61985881  0.70542078    -0.75130
O2256       O  0.37631743  0.65966874  0.77736657    -0.74650
O2257       O  0.36533978  0.56829463  0.71120023    -0.75330
O2258       O  0.38986664  0.61714986  0.77901477    -0.74930
O2259       O  0.32849100  0.65462645  0.73285839    -0.75510
O2260       O  0.40918930  0.68183444  0.68812617    -0.74900
O2261       O  0.37205637  0.61584053  0.66172839    -0.75660
O2262       O  0.37682361  0.69589066  0.71487108    -0.75050
O2263       O  0.41501378  0.62722985  0.66181904    -0.75510
O2264       O  0.45313076  0.64142786  0.71497979    -0.75420
O2265       O  0.44317316  0.61532865  0.74899871    -0.75210
C2266       C  0.38062410  0.55696984  0.72810826     0.76580
C2267       C  0.31482690  0.63802468  0.71924664     0.77070
C2268       C  0.38175818  0.63820579  0.79038138     0.76030
C2269       C  0.39274495  0.69981697  0.69524697     0.76400
C2270       C  0.39300445  0.62378970  0.64967084     0.77540
C2271       C  0.45993709  0.62913220  0.73609635     0.76590
Zn2272     Zn  0.40308384  0.66448542  0.98688434     1.49720
Zn2273     Zn  0.40621490  0.60789129  0.95651307     1.49360
Zn2274     Zn  0.35974742  0.61809993  0.99810866     1.49110
Zn2275     Zn  0.35827347  0.64693207  0.94582057     1.49480
O2276       O  0.38246928  0.63436320  0.97232474    -1.84680
O2277       O  0.44170339  0.65371001  0.98986719    -0.75310
O2278       O  0.39515495  0.56975107  0.96832902    -0.75130
O2279       O  0.36991853  0.63201340  0.53222200    -0.74650
O2280       O  0.44395314  0.61368213  0.97075385    -0.75330
O2281       O  0.39381136  0.66922756  0.52627781    -0.74930
O2282       O  0.36512529  0.57896491  0.99945854    -0.75510
O2283       O  0.31994226  0.64589315  0.95532521    -0.74900
O2284       O  0.40491152  0.61416189  0.91614226    -0.75660
O2285       O  0.32066408  0.62521124  0.99401695    -0.75050
O2286       O  0.36256805  0.62731554  0.91263730    -0.75510
O2287       O  0.36747253  0.68364906  0.93580227    -0.75420
O2288       O  0.39996677  0.69792117  0.96218240    -0.75210
C2289       C  0.45475812  0.63265894  0.98389948     0.76580
C2290       C  0.37930255  0.56218493  0.98681802     0.77070
C2291       C  0.38240296  0.65203309  0.54129587     0.76030
C2292       C  0.30790605  0.63639178  0.97532054     0.76400
C2293       C  0.38473738  0.62119806  0.90223260     0.77540
C2294       C  0.38430935  0.70136700  0.94236994     0.76590
Zn2295     Zn  0.40832843  0.88755600  0.61273199     1.49720
Zn2296     Zn  0.36075113  0.84972684  0.62507291     1.49360
Zn2297     Zn  0.36027286  0.87935212  0.57360016     1.49110
Zn2298     Zn  0.40207434  0.83121056  0.58063495     1.49480
O2299       O  0.38365386  0.86165257  0.59728574    -1.84680
O2300       O  0.40935240  0.87922520  0.65273455    -0.75310
O2301       O  0.32214481  0.84948135  0.61660262    -0.75130
O2302       O  0.36476401  0.91832406  0.57426860    -0.74650
O2303       O  0.36584291  0.87303317  0.65571435    -0.75330
O2304       O  0.39793396  0.92645627  0.60224427    -0.74930
O2305       O  0.32186362  0.87088112  0.57826948    -0.75510
O2306       O  0.39352139  0.83097923  0.53996925    -0.74900
O2307       O  0.37094219  0.81334099  0.63633515    -0.75660
O2308       O  0.37038601  0.86902995  0.53840687    -0.75050
O2309       O  0.39702719  0.79666237  0.60464920    -0.75510
O2310       O  0.44126444  0.83990515  0.57875564    -0.75420
O2311       O  0.44460945  0.88049505  0.59667307    -0.75210
C2312       C  0.38872344  0.87313326  0.66634548     0.76580
C2313       C  0.30965013  0.85901526  0.59689898     0.77070
C2314       C  0.38047640  0.93461421  0.58550246     0.76030
C2315       C  0.38262690  0.85017141  0.52687720     0.76400
C2316       C  0.38480761  0.79423385  0.62701999     0.77540
C2317       C  0.45476726  0.86085074  0.58396884     0.76590
Zn2318     Zn  0.35862094  0.84646423  0.87078736     1.49720
Zn2319     Zn  0.40397524  0.83118199  0.82947453     1.49360
Zn2320     Zn  0.35958120  0.87668350  0.81875226     1.49110
Zn2321     Zn  0.40657108  0.88675882  0.86064310     1.49480
O2322       O  0.38257395  0.86041383  0.84459553    -1.84680
O2323       O  0.36720539  0.80862842  0.87851174    -0.75310
O2324       O  0.39569352  0.82724576  0.79009378    -0.75130
O2325       O  0.31994175  0.86953077  0.82347098    -0.74650
O2326       O  0.40160484  0.79726791  0.85289710    -0.75330
O2327       O  0.31954132  0.84935526  0.86246177    -0.74930
O2328       O  0.37190894  0.86463521  0.78383567    -0.75510
O2329       O  0.39484016  0.92492397  0.84961315    -0.74900
O2330       O  0.44234365  0.84204132  0.82659187    -0.75660
O2331       O  0.36447861  0.91590865  0.81877416    -0.75050
O2332       O  0.44413412  0.88216513  0.84532992    -0.75510
O2333       O  0.40654645  0.87997680  0.90116896    -0.75420
O2334       O  0.36528458  0.86379117  0.90494121    -0.75210
C2335       C  0.38521650  0.79211393  0.87166932     0.76580
C2336       C  0.38554978  0.84514084  0.77501387     0.77070
C2337       C  0.30716752  0.85897117  0.84263640     0.76030
C2338       C  0.37865553  0.93260523  0.83145522     0.76400
C2339       C  0.45508013  0.86331989  0.83207620     0.77540
C2340       C  0.38698267  0.87168144  0.91528037     0.76590
Zn2341     Zn  0.33865036  0.13628303  0.54620287     1.49720
Zn2342     Zn  0.39428393  0.14020338  0.51334115     1.49360
Zn2343     Zn  0.39016384  0.10065125  0.56001283     1.49110
Zn2344     Zn  0.35811691  0.08788044  0.50931338     1.49480
O2345       O  0.36993858  0.11667327  0.53237675    -1.84680
O2346       O  0.34514989  0.17614843  0.54166174    -0.75310
O2347       O  0.43407212  0.13561527  0.52411582    -0.75130
O2348       O  0.37498866  0.11060454  0.59384262    -0.74650
O2349       O  0.38483763  0.17821869  0.52189246    -0.75330
O2350       O  0.33544922  0.12990778  0.58671098    -0.74930
O2351       O  0.42781119  0.11133730  0.56032115    -0.75510
O2352       O  0.36287549  0.05051679  0.52628968    -0.74900
O2353       O  0.38516917  0.13497222  0.97460961    -0.75660
O2354       O  0.38902144  0.06125600  0.56003585    -0.75050
O2355       O  0.37597547  0.09143726  0.97402540    -0.75510
O2356       O  0.32027762  0.09459103  0.49811185    -0.75420
O2357       O  0.30502696  0.12748324  0.52377025    -0.75210
C2358       C  0.36465624  0.18958804  0.53235884     0.76580
C2359       C  0.44312638  0.12443400  0.54511809     0.77070
C2360       C  0.35336817  0.12054958  0.60229314     0.76030
C2361       C  0.37663838  0.04383028  0.54661378     0.76400
C2362       C  0.37767344  0.11399441  0.96224011     0.77540
C2363       C  0.30205984  0.11118894  0.50439293     0.76590
Zn2364     Zn  0.33458060  0.13608777  0.79759065     1.49720
Zn2365     Zn  0.38995870  0.13937496  0.76423711     1.49360
Zn2366     Zn  0.38589859  0.09992542  0.81098067     1.49110
Zn2367     Zn  0.35375600  0.08759005  0.76016270     1.49480
O2368       O  0.36558933  0.11613732  0.78343873    -1.84680
O2369       O  0.34144772  0.17587384  0.79277451    -0.75310
O2370       O  0.42943999  0.13465247  0.77498402    -0.75130
O2371       O  0.37033305  0.10905746  0.84475629    -0.74650
O2372       O  0.38094772  0.17745324  0.77263253    -0.75330
O2373       O  0.33174946  0.13033416  0.83832600    -0.74930
O2374       O  0.42303597  0.11249943  0.81253521    -0.75510
O2375       O  0.35903704  0.05017631  0.77649681    -0.74900
O2376       O  0.38178752  0.13430867  0.72542034    -0.75660
O2377       O  0.38565792  0.06035229  0.81007540    -0.75050
O2378       O  0.37087385  0.09118554  0.72447578    -0.75510
O2379       O  0.31575439  0.09425492  0.74975362    -0.75420
O2380       O  0.30071308  0.12725540  0.77545679    -0.75210
C2381       C  0.36102497  0.18907914  0.78328047     0.76580
C2382       C  0.43820990  0.12522702  0.79688868     0.77070
C2383       C  0.34941703  0.12004281  0.85361344     0.76030
C2384       C  0.37317888  0.04312595  0.79642477     0.76400
C2385       C  0.37430591  0.11354994  0.71273586     0.77540
C2386       C  0.29758898  0.11085323  0.75617968     0.76590
Zn2387     Zn  0.11687941  0.10245729  0.63159548     1.49720
Zn2388     Zn  0.11166936  0.14059423  0.67905762     1.49360
Zn2389     Zn  0.14821267  0.08839030  0.68281949     1.49110
Zn2390     Zn  0.16776659  0.13723506  0.64667073     1.49480
O2391       O  0.13649263  0.11750313  0.66002757    -1.84680
O2392       O  0.07899373  0.11182011  0.63195202    -0.75310
O2393       O  0.12068431  0.13531129  0.71773329    -0.75130
O2394       O  0.14308307  0.05139337  0.66526641    -0.74650
O2395       O  0.07194488  0.13565543  0.66823366    -0.75330
O2396       O  0.11942975  0.06318266  0.62997664    -0.74930
O2397       O  0.13108645  0.09199658  0.71858530    -0.75510
O2398       O  0.20133919  0.12808619  0.66896782    -0.74900
O2399       O  0.12072004  0.17870562  0.67076744    -0.75660
O2400       O  0.18623616  0.09443146  0.69369745    -0.75050
O2401       O  0.16083148  0.17684826  0.65181552    -0.75510
O2402       O  0.17128515  0.13209588  0.60605292    -0.75420
O2403       O  0.13089356  0.11522781  0.59816961    -0.75210
C2404       C  0.06327498  0.12445822  0.64712183     0.76580
C2405       C  0.12869059  0.11456876  0.73023831     0.77070
C2406       C  0.13069787  0.04533415  0.64390946     0.76030
C2407       C  0.20439017  0.11120602  0.68785410     0.76400
C2408       C  0.14105939  0.19017807  0.66078431     0.77540
C2409       C  0.15274797  0.12490532  0.59012484     0.76590
Zn2410     Zn  0.15250738  0.08873807  0.93286013     1.49720
Zn2411     Zn  0.12078686  0.10077359  0.88127484     1.49360
Zn2412     Zn  0.11553770  0.14014299  0.92796753     1.49110
Zn2413     Zn  0.17131639  0.13743801  0.89511970     1.49480
O2414       O  0.14049523  0.11712001  0.90917518    -1.84680
O2415       O  0.14730150  0.05103507  0.91710877    -0.75310
O2416       O  0.08279713  0.11158158  0.88016057    -0.75130
O2417       O  0.12335865  0.13568601  0.96688842    -0.74650
O2418       O  0.12414256  0.06131321  0.88100570    -0.75330
O2419       O  0.13652551  0.09316594  0.96898536    -0.74930
O2420       O  0.07626050  0.13469590  0.91713605    -0.75510
O2421       O  0.16393436  0.17721056  0.90009624    -0.74900
O2422       O  0.13544886  0.11143911  0.84761044    -0.75660
O2423       O  0.12399441  0.17832475  0.91941035    -0.75050
O2424       O  0.17434478  0.13187109  0.85430377    -0.75510
O2425       O  0.20530457  0.12865899  0.91722397    -0.75420
O2426       O  0.19066569  0.09522897  0.94258785    -0.75210
C2427       C  0.13557767  0.04413109  0.89566845     0.76580
C2428       C  0.06750107  0.12449015  0.89561032     0.77070
C2429       C  0.13188931  0.11563823  0.98009731     0.76030
C2430       C  0.14398336  0.19019931  0.90921143     0.76400
C2431       C  0.15647513  0.12222168  0.83888382     0.77540
C2432       C  0.20867344  0.11197845  0.93626314     0.76590
C2433       C  0.14974618  0.09536938  0.77109484    -0.13900
C2434       C  0.13798606  0.11728879  0.75802048     0.08250
C2435       C  0.13800582  0.14241357  0.77070689    -0.13900
C2436       C  0.14801469  0.14511068  0.79649017    -0.13900
C2437       C  0.15839006  0.12283537  0.80995723     0.08250
C2438       C  0.15974560  0.09812465  0.79678386    -0.13900
H2439       H  0.15069901  0.07587940  0.76172993     0.12230
H2440       H  0.12967873  0.15987115  0.76098338     0.12230
H2441       H  0.14570347  0.16407943  0.80666616     0.12230
H2442       H  0.16666311  0.08042873  0.80719154     0.12230
C2443       C  0.16321357  0.10389972  0.54743447    -0.13900
C2444       C  0.15519881  0.12680417  0.56135281     0.08250
C2445       C  0.14005780  0.14644116  0.54826910    -0.13900
C2446       C  0.13221950  0.14279636  0.52192510    -0.13900
C2447       C  0.13902577  0.11917977  0.50834068     0.08250
C2448       C  0.15525065  0.10011708  0.52116368    -0.13900
H2449       H  0.17393811  0.08801107  0.55750423     0.12230
H2450       H  0.13270292  0.16371725  0.55904287     0.12230
H2451       H  0.12017932  0.15809361  0.51246833     0.12230
H2452       H  0.16146796  0.08202475  0.01104499     0.12230
C2453       C  0.27654271  0.11274653  0.71130840    -0.13900
C2454       C  0.27347090  0.11198392  0.73910825     0.08250
C2455       C  0.24763832  0.11170553  0.74974825    -0.13900
C2456       C  0.22535691  0.11119932  0.73286427    -0.13900
C2457       C  0.22843375  0.11195643  0.70505803     0.08250
C2458       C  0.25424953  0.11324584  0.69445531    -0.13900
H2459       H  0.29632443  0.11314729  0.70261680     0.12230
H2460       H  0.24471773  0.11112747  0.77101684     0.12230
H2461       H  0.20558479  0.11045665  0.74154724     0.12230
H2462       H  0.25717932  0.11391321  0.67319012     0.12230
C2463       C  0.36672955  0.14133426  0.92175808    -0.13900
C2464       C  0.36817219  0.11626030  0.93449798     0.08250
C2465       C  0.35766785  0.09372710  0.92149472    -0.13900
C2466       C  0.34758332  0.09588703  0.89579802    -0.13900
C2467       C  0.34758773  0.12059691  0.88254340     0.08250
C2468       C  0.35659917  0.14344580  0.89595575    -0.13900
H2469       H  0.37403465  0.15922083  0.93145403     0.12230
H2470       H  0.35781767  0.07422417  0.93090461     0.12230
H2471       H  0.34166807  0.07783033  0.88545231     0.12230
H2472       H  0.35781045  0.16249565  0.88572537     0.12230
C2473       C  0.35068844  0.09541282  0.64385562    -0.13900
C2474       C  0.35054186  0.12039408  0.63111641     0.08250
C2475       C  0.35762344  0.14332340  0.64546122    -0.13900
C2476       C  0.36576583  0.14111620  0.67192535    -0.13900
C2477       C  0.36710236  0.11588025  0.68437116     0.08250
C2478       C  0.35874716  0.09316411  0.67022152    -0.13900
H2479       H  0.34629169  0.07734750  0.63279515     0.12230
H2480       H  0.35869801  0.16261301  0.63566771     0.12230
H2481       H  0.37148555  0.15910065  0.68246302     0.12230
H2482       H  0.35902166  0.07350378  0.67930509     0.12230
C2483       C  0.22985939  0.11302268  0.98108845    -0.13900
C2484       C  0.23285793  0.11293979  0.95326802     0.08250
C2485       C  0.25867028  0.11310282  0.94257036    -0.13900
C2486       C  0.28100296  0.11233291  0.95939777    -0.13900
C2487       C  0.27798850  0.11238149  0.98722607     0.08250
C2488       C  0.25218139  0.11326821  0.49790215    -0.13900
H2489       H  0.21010177  0.11307401  0.98983742     0.12230
H2490       H  0.26154453  0.11304245  0.92128857     0.12230
H2491       H  0.30076197  0.11190018  0.95065941     0.12230
H2492       H  0.24928748  0.11337890  0.51918208     0.12230
C2493       C  0.39388195  0.98054196  0.83411415    -0.13900
C2494       C  0.37665156  0.96120416  0.82355811     0.08250
C2495       C  0.35842395  0.96901118  0.80365589    -0.13900
C2496       C  0.35757724  0.99540812  0.79441271    -0.13900
C2497       C  0.37483965  0.01471690  0.80491842     0.08250
C2498       C  0.39295575  0.00698947  0.82493503    -0.13900
H2499       H  0.40829063  0.97519313  0.84922029     0.12230
H2500       H  0.34486279  0.95462669  0.79495363     0.12230
H2501       H  0.34323471  0.00073136  0.77923268     0.12230
H2502       H  0.40653127  0.02141513  0.83355096     0.12230
C2503       C  0.39780359  0.98195914  0.58520423    -0.13900
C2504       C  0.37882605  0.96309099  0.57706759     0.08250
C2505       C  0.35930938  0.97096685  0.55840185    -0.13900
C2506       C  0.35895777  0.99688726  0.54791563    -0.13900
C2507       C  0.37794511  0.01570793  0.55599786     0.08250
C2508       C  0.39730777  0.00799323  0.57485472    -0.13900
H2509       H  0.41325534  0.97651618  0.59922155     0.12230
H2510       H  0.34437903  0.95694388  0.55152318     0.12230
H2511       H  0.34360221  0.00228356  0.53377144     0.12230
H2512       H  0.41222138  0.02210880  0.58159143     0.12230
C2513       C  0.40745618  0.84705052  0.98332024    -0.13900
C2514       C  0.38410798  0.85278664  0.49773812     0.08250
C2515       C  0.36330163  0.86676598  0.98510038    -0.13900
C2516       C  0.36558481  0.87490914  0.95891204    -0.13900
C2517       C  0.38861921  0.86912579  0.94429384     0.08250
C2518       C  0.40967054  0.85514432  0.95663066    -0.13900
H2519       H  0.42407247  0.83698883  0.99279875     0.12230
H2520       H  0.34518320  0.87185201  0.49572824     0.12230
H2521       H  0.34885087  0.88509265  0.94971933     0.12230
H2522       H  0.42728957  0.84967963  0.94541009     0.12230
C2523       C  0.41161589  0.87056433  0.71068041    -0.13900
C2524       C  0.39071413  0.86319797  0.69378487     0.08250
C2525       C  0.37103748  0.84533029  0.70306737    -0.13900
C2526       C  0.37104211  0.83663048  0.72929023    -0.13900
C2527       C  0.39084204  0.84543269  0.74660922     0.08250
C2528       C  0.41150182  0.86191070  0.73709339    -0.13900
H2529       H  0.42713403  0.88400268  0.70389784     0.12230
H2530       H  0.35505669  0.83867833  0.69021179     0.12230
H2531       H  0.35462036  0.82454291  0.73648868     0.12230
H2532       H  0.42649013  0.86955667  0.75058098     0.12230
C2533       C  0.40910526  0.73977848  0.92071590    -0.13900
C2534       C  0.38535761  0.72549562  0.92521764     0.08250
C2535       C  0.36252822  0.73229043  0.91039220    -0.13900
C2536       C  0.36318776  0.75293694  0.89184528    -0.13900
C2537       C  0.38678031  0.76714340  0.88718390     0.08250
C2538       C  0.40983153  0.76043801  0.90169508    -0.13900
H2539       H  0.42708668  0.73470545  0.93152197     0.12230
H2540       H  0.34392533  0.72163182  0.91322396     0.12230
H2541       H  0.34501545  0.75821684  0.88141772     0.12230
H2542       H  0.42803282  0.77179336  0.89900992     0.12230
C2543       C  0.37209601  0.61109196  0.83007397    -0.13900
C2544       C  0.37978824  0.63602196  0.81938712     0.08250
C2545       C  0.39029108  0.65562093  0.83624344    -0.13900
C2546       C  0.39356268  0.64998938  0.86329151    -0.13900
C2547       C  0.38656734  0.62472679  0.87357958     0.08250
C2548       C  0.37531325  0.60556246  0.85692367    -0.13900
H2549       H  0.36403186  0.59556869  0.81739968     0.12230
H2550       H  0.39677546  0.67473738  0.82841021     0.12230
H2551       H  0.40112409  0.66546587  0.87631848     0.12230
H2552       H  0.36865804  0.58650187  0.86477882     0.12230
C2553       C  0.36523720  0.63529455  0.61052510    -0.13900
C2554       C  0.39069852  0.63240136  0.62180214     0.08250
C2555       C  0.41312777  0.64129219  0.60747522    -0.13900
C2556       C  0.41019381  0.65132317  0.58171661    -0.13900
C2557       C  0.38480875  0.65273441  0.57012255     0.08250
C2558       C  0.36234410  0.64545404  0.58503878    -0.13900
H2559       H  0.34744753  0.62949479  0.62128744     0.12230
H2560       H  0.43294450  0.63997111  0.61593810     0.12230
H2561       H  0.42784100  0.65602349  0.57020431     0.12230
H2562       H  0.34262974  0.64587855  0.57620534     0.12230
C2563       C  0.37279863  0.74496920  0.68376037    -0.13900
C2564       C  0.39149741  0.72470222  0.67866884     0.08250
C2565       C  0.40771701  0.72716540  0.65578659    -0.13900
C2566       C  0.40531231  0.74920387  0.63857708    -0.13900
C2567       C  0.38667360  0.76950955  0.64376227     0.08250
C2568       C  0.37048398  0.76703114  0.66664801    -0.13900
H2569       H  0.35974622  0.74368256  0.70083182     0.12230
H2570       H  0.42219546  0.71181372  0.65090307     0.12230
H2571       H  0.41822990  0.75046322  0.62140337     0.12230
H2572       H  0.35586645  0.78227242  0.67147322     0.12230
C2573       C  0.64391559  0.37644627  0.82973543    -0.13900
C2574       C  0.63318917  0.35351254  0.81758100     0.08250
C2575       C  0.61921102  0.33488159  0.83291373    -0.13900
C2576       C  0.61473911  0.33992843  0.85980993    -0.13900
C2577       C  0.62444235  0.36352186  0.87170117     0.08250
C2578       C  0.63980784  0.38129537  0.85662626    -0.13900
H2579       H  0.65433520  0.39133722  0.81801994     0.12230
H2580       H  0.61024391  0.31745811  0.82376929     0.12230
H2581       H  0.60354585  0.32544217  0.87129548     0.12230
H2582       H  0.64795649  0.39929015  0.86543980     0.12230
C2583       C  0.60444328  0.34563903  0.60897735    -0.13900
C2584       C  0.62367510  0.36216330  0.62099396     0.08250
C2585       C  0.64782212  0.36690740  0.60759818    -0.13900
C2586       C  0.65180601  0.35689620  0.58202054    -0.13900
C2587       C  0.63189752  0.34174048  0.56952963     0.08250
C2588       C  0.60852894  0.33557033  0.58348544    -0.13900
H2589       H  0.58595016  0.34088756  0.61904793     0.12230
H2590       H  0.66329427  0.37902817  0.61653591     0.12230
H2591       H  0.66948669  0.36285294  0.57114113     0.12230
H2592       H  0.59247317  0.32485192  0.57380117     0.12230
C2593       C  0.51347064  0.13302546  0.79563252    -0.13900
C2594       C  0.51954168  0.13215364  0.82288720     0.08250
C2595       C  0.49874388  0.13061638  0.84131228    -0.13900
C2596       C  0.47235927  0.12875790  0.83261261    -0.13900
C2597       C  0.46620313  0.12906284  0.80533541     0.08250
C2598       C  0.48695665  0.13187516  0.78691807    -0.13900
H2599       H  0.52931059  0.13439369  0.78106693     0.12230
H2600       H  0.50295880  0.12984564  0.86236137     0.12230
H2601       H  0.45669822  0.12685741  0.84730493     0.12230
H2602       H  0.48277267  0.13220600  0.76585904     0.12230
C2603       C  0.64361484  0.23687719  0.89716014    -0.13900
C2604       C  0.61924393  0.22630080  0.88807815     0.08250
C2605       C  0.59543436  0.23590509  0.89940090    -0.13900
C2606       C  0.59580928  0.25562008  0.91901262    -0.13900
C2607       C  0.62002941  0.26619133  0.92830777     0.08250
C2608       C  0.64400919  0.25657134  0.91719276    -0.13900
H2609       H  0.66232458  0.22938341  0.88934311     0.12230
H2610       H  0.57633956  0.22791087  0.89321702     0.12230
H2611       H  0.57696518  0.26281905  0.92680410     0.12230
H2612       H  0.66297159  0.26478875  0.92345687     0.12230
C2613       C  0.51463744  0.14917533  0.55265505    -0.13900
C2614       C  0.52394671  0.13281663  0.57353306     0.08250
C2615       C  0.50687062  0.11323985  0.58390657    -0.13900
C2616       C  0.48105747  0.11028461  0.57401790    -0.13900
C2617       C  0.47152983  0.12669290  0.55330562     0.08250
C2618       C  0.48869506  0.14607008  0.54255560    -0.13900
H2619       H  0.52748920  0.16422915  0.54396055     0.12230
H2620       H  0.51340669  0.10020751  0.59981506     0.12230
H2621       H  0.46843753  0.09510886  0.58284724     0.12230
H2622       H  0.48192729  0.15912207  0.52676696     0.12230
C2623       C  0.64663643  0.14106228  0.98339132    -0.13900
C2624       C  0.62476324  0.15122511  0.49764235     0.08250
C2625       C  0.59998935  0.15368012  0.98498743    -0.13900
C2626       C  0.59693710  0.14498250  0.95877128    -0.13900
C2627       C  0.61862158  0.13364279  0.94490242     0.08250
C2628       C  0.64361185  0.13231736  0.95738430    -0.13900
H2629       H  0.66584803  0.13853749  0.99294756     0.12230
H2630       H  0.58267174  0.16066269  0.99585832     0.12230
H2631       H  0.57754335  0.14685689  0.94948347     0.12230
H2632       H  0.66090350  0.12441934  0.94711358     0.12230
C2633       C  0.64516555  0.13760896  0.70540488    -0.13900
C2634       C  0.62101875  0.12967962  0.69326255     0.08250
C2635       C  0.59712957  0.13262845  0.70739912    -0.13900
C2636       C  0.59760956  0.14168321  0.73361548    -0.13900
C2637       C  0.62189857  0.14822103  0.74607361     0.08250
C2638       C  0.64558117  0.14681737  0.73154621    -0.13900
H2639       H  0.66396547  0.13616091  0.69489626     0.12230
H2640       H  0.57821385  0.12733167  0.69846655     0.12230
H2641       H  0.57914534  0.14195438  0.74481909     0.12230
H2642       H  0.66456868  0.15083668  0.74099859     0.12230
C2643       C  0.59996908  0.24529638  0.63953441    -0.13900
C2644       C  0.61882587  0.22516327  0.64468766     0.08250
C2645       C  0.63546131  0.22797618  0.66712762    -0.13900
C2646       C  0.63356407  0.25039083  0.68371829    -0.13900
C2647       C  0.61483872  0.27062364  0.67851841     0.08250
C2648       C  0.59795669  0.26768883  0.65625782    -0.13900
H2649       H  0.58673566  0.24373346  0.62264236     0.12230
H2650       H  0.65024029  0.21286012  0.67186169     0.12230
H2651       H  0.64707045  0.25204611  0.70038910     0.12230
H2652       H  0.58344715  0.28301547  0.65137815     0.12230
C2653       C  0.86561130  0.90524994  0.77181952    -0.13900
C2654       C  0.86851219  0.88108592  0.75802157     0.08250
C2655       C  0.85903319  0.85726084  0.76984011    -0.13900
C2656       C  0.84875460  0.85732844  0.79561942    -0.13900
C2657       C  0.84784911  0.88118718  0.81007765     0.08250
C2658       C  0.85539988  0.90527663  0.79759592    -0.13900
H2659       H  0.87197199  0.92398742  0.76304622     0.12230
H2660       H  0.86026913  0.83831792  0.75946388     0.12230
H2661       H  0.84374984  0.83845990  0.80499260     0.12230
H2662       H  0.85528170  0.92391205  0.80860222     0.12230
C2663       C  0.84683355  0.89912817  0.54899147    -0.13900
C2664       C  0.85567600  0.87631953  0.56267001     0.08250
C2665       C  0.86998565  0.85651478  0.54881115    -0.13900
C2666       C  0.87633557  0.85986611  0.52218016    -0.13900
C2667       C  0.86840881  0.88306165  0.50859895     0.08250
C2668       C  0.85316755  0.90248514  0.52213275    -0.13900
H2669       H  0.83625577  0.91491836  0.55933012     0.12230
H2670       H  0.87722751  0.83876825  0.55890609     0.12230
H2671       H  0.88757340  0.84425255  0.51226986     0.12230
H2672       H  0.84616036  0.92028018  0.01199255     0.12230
C2673       C  0.60786585  0.99173712  0.81379995    -0.13900
C2674       C  0.63246690  0.98081463  0.80605640     0.08250
C2675       C  0.65593159  0.99558808  0.81007650    -0.13900
C2676       C  0.65467474  0.02112186  0.82163550    -0.13900
C2677       C  0.62989821  0.03224433  0.82871149     0.08250
C2678       C  0.60654633  0.01739238  0.82458314    -0.13900
H2679       H  0.58958734  0.98047834  0.81116594     0.12230
H2680       H  0.67514235  0.98721280  0.80470332     0.12230
H2681       H  0.67283966  0.03259345  0.82405278     0.12230
H2682       H  0.58721403  0.02584755  0.82941518     0.12230
C2683       C  0.51891186  0.85135459  0.79262605    -0.13900
C2684       C  0.53477382  0.87306172  0.80052381     0.08250
C2685       C  0.52400217  0.89175854  0.81855042    -0.13900
C2686       C  0.49829635  0.88857094  0.82887390    -0.13900
C2687       C  0.48267934  0.86647008  0.82163214     0.08250
C2688       C  0.49318530  0.84804332  0.80313614    -0.13900
H2689       H  0.52668701  0.83648461  0.77902644     0.12230
H2690       H  0.53567822  0.90875067  0.82509303     0.12230
H2691       H  0.49077225  0.90330820  0.84275145     0.12230
H2692       H  0.48153136  0.83096962  0.79678291     0.12230
C2693       C  0.75358660  0.87153774  0.74707976    -0.13900
C2694       C  0.73182870  0.88753544  0.73964021     0.08250
C2695       C  0.73369429  0.90222197  0.71570954    -0.13900
C2696       C  0.75657374  0.90069776  0.69958058    -0.13900
C2697       C  0.77823313  0.88446840  0.70695936     0.08250
C2698       C  0.77642177  0.87010766  0.73108126    -0.13900
H2699       H  0.75290102  0.85988077  0.76518232     0.12230
H2700       H  0.71719451  0.91457231  0.70911235     0.12230
H2701       H  0.75721806  0.91206973  0.68130398     0.12230
H2702       H  0.79271893  0.85749470  0.73769572     0.12230
C2703       C  0.64593212  0.99933991  0.54381902    -0.13900
C2704       C  0.62774613  0.98023147  0.55309798     0.08250
C2705       C  0.60894548  0.98801211  0.57251488    -0.13900
C2706       C  0.60834948  0.01423594  0.58239783    -0.13900
C2707       C  0.62661534  0.03333921  0.57319527     0.08250
C2708       C  0.64542806  0.02550630  0.55378441    -0.13900
H2709       H  0.66081537  0.99398255  0.52916406     0.12230
H2710       H  0.59460442  0.97375776  0.58016743     0.12230
H2711       H  0.59344806  0.01958962  0.59703209     0.12230
H2712       H  0.65980628  0.03969127  0.54608112     0.12230
C2713       C  0.49299888  0.84368336  0.55631127    -0.13900
C2714       C  0.48245460  0.86299688  0.57383304     0.08250
C2715       C  0.49799703  0.88542917  0.58018001    -0.13900
C2716       C  0.52357100  0.88830048  0.56970572    -0.13900
C2717       C  0.53430461  0.86890516  0.55248025     0.08250
C2718       C  0.51868239  0.84666539  0.54564564    -0.13900
H2719       H  0.48137450  0.82630935  0.55075173     0.12230
H2720       H  0.49043976  0.90082934  0.59331794     0.12230
H2721       H  0.53511751  0.90570632  0.57536621     0.12230
H2722       H  0.52656710  0.83127396  0.53269066     0.12230
C2723       C  0.62570195  0.85446971  0.91819493    -0.13900
C2724       C  0.63453338  0.87665128  0.93284074     0.08250
C2725       C  0.65307563  0.89428548  0.92122412    -0.13900
C2726       C  0.66156007  0.89057535  0.89509344    -0.13900
C2727       C  0.65159786  0.86926036  0.88008718     0.08250
C2728       C  0.63394402  0.85100083  0.89194352    -0.13900
H2729       H  0.61180503  0.84028862  0.92674652     0.12230
H2730       H  0.66085440  0.91115862  0.93225190     0.12230
H2731       H  0.67433437  0.90546540  0.88598861     0.12230
H2732       H  0.62516394  0.83505867  0.88029495     0.12230
C2733       C  0.64672016  0.85269909  0.64472237    -0.13900
C2734       C  0.65409466  0.87544485  0.63021478     0.08250
C2735       C  0.65383898  0.90057617  0.64262747    -0.13900
C2736       C  0.64532640  0.90316065  0.66881403    -0.13900
C2737       C  0.63664128  0.88063447  0.68309133     0.08250
C2738       C  0.63810743  0.85524527  0.67100064    -0.13900
H2739       H  0.64574436  0.83330245  0.63515562     0.12230
H2740       H  0.65848505  0.91849783  0.63140769     0.12230
H2741       H  0.64497468  0.92292259  0.67764940     0.12230
H2742       H  0.63216342  0.83739626  0.68167409     0.12230
C2743       C  0.72378669  0.88166997  0.95905094    -0.13900
C2744       C  0.72720677  0.88055157  0.98680725     0.08250
C2745       C  0.75305765  0.87811560  0.49705682    -0.13900
C2746       C  0.77510717  0.87814003  0.97989420    -0.13900
C2747       C  0.77168161  0.87959717  0.95216111     0.08250
C2748       C  0.74579108  0.88078990  0.94184920    -0.13900
H2749       H  0.70395635  0.88322303  0.95066004     0.12230
H2750       H  0.75623360  0.87713339  0.51827243     0.12230
H2751       H  0.79499253  0.87720085  0.98829127     0.12230
H2752       H  0.74264376  0.88206063  0.92064380     0.12230
C2753       C  0.88626765  0.73422640  0.90901971    -0.13900
C2754       C  0.86235452  0.71956228  0.90871789     0.08250
C2755       C  0.83796840  0.73353997  0.90861164    -0.13900
C2756       C  0.83752818  0.76163274  0.90841741    -0.13900
C2757       C  0.86145315  0.77627060  0.90913374     0.08250
C2758       C  0.88581491  0.76226083  0.90962546    -0.13900
H2759       H  0.90534319  0.72397953  0.90915162     0.12230
H2760       H  0.81924971  0.72272983  0.90821461     0.12230
H2761       H  0.81848040  0.77192094  0.90816727     0.12230
H2762       H  0.90456253  0.77302390  0.91011228     0.12230
C2763       C  0.84598020  0.73498416  0.65943157    -0.13900
C2764       C  0.87005983  0.72068220  0.66023655     0.08250
C2765       C  0.89442689  0.73440201  0.66064440    -0.13900
C2766       C  0.89474377  0.76226592  0.65982044    -0.13900
C2767       C  0.87068174  0.77658290  0.65948841     0.08250
C2768       C  0.84628375  0.76289010  0.65957439    -0.13900
H2769       H  0.82703480  0.72456267  0.65906073     0.12230
H2770       H  0.91316380  0.72353861  0.66102357     0.12230
H2771       H  0.91370713  0.77266303  0.65999911     0.12230
H2772       H  0.82756721  0.77379108  0.65937267     0.12230
C2773       C  0.84892731  0.59566503  0.76905019    -0.13900
C2774       C  0.85229612  0.62028196  0.75609527     0.08250
C2775       C  0.86256009  0.64213730  0.77030997    -0.13900
C2776       C  0.87062497  0.63916591  0.79655818    -0.13900
C2777       C  0.86860335  0.61422925  0.80926912     0.08250
C2778       C  0.85703355  0.59264807  0.79545266    -0.13900
H2779       H  0.84174244  0.57835132  0.75828407     0.12230
H2780       H  0.86569943  0.66124026  0.76058744     0.12230
H2781       H  0.87873357  0.65639729  0.80677656     0.12230
H2782       H  0.85456590  0.57333237  0.80491163     0.12230
C2783       C  0.86843328  0.59310467  0.54657163    -0.13900
C2784       C  0.87103816  0.61740204  0.56018806     0.08250
C2785       C  0.86264125  0.64126656  0.54761729    -0.13900
C2786       C  0.85331826  0.64098996  0.52149548    -0.13900
C2787       C  0.85227126  0.61687439  0.50748504     0.08250
C2788       C  0.85919861  0.59287520  0.52046685    -0.13900
H2789       H  0.87402372  0.57435865  0.55586773     0.12230
H2790       H  0.86381157  0.66033517  0.55776430     0.12230
H2791       H  0.84888866  0.65977783  0.51166158     0.12230
H2792       H  0.85904303  0.57406476  0.50975593     0.12230
C2793       C  0.66733379  0.73610428  0.77604618    -0.13900
C2794       C  0.64439946  0.72177480  0.78357563     0.08250
C2795       C  0.62110678  0.73602663  0.79022134    -0.13900
C2796       C  0.62063193  0.76394472  0.78903071    -0.13900
C2797       C  0.64358711  0.77819849  0.78177748     0.08250
C2798       C  0.66701356  0.76413426  0.77547237    -0.13900
H2799       H  0.68557228  0.72567681  0.77085800     0.12230
H2800       H  0.60310526  0.72559521  0.79607712     0.12230
H2801       H  0.60239226  0.77445643  0.79409274     0.12230
H2802       H  0.68488851  0.77481941  0.76967094     0.12230
C2803       C  0.60884575  0.50483810  0.76264464    -0.13900
C2804       C  0.63302276  0.51862097  0.76019616     0.08250
C2805       C  0.65400188  0.50700730  0.74571806    -0.13900
C2806       C  0.65091807  0.48160749  0.73419880    -0.13900
C2807       C  0.62689141  0.46741862  0.73729156     0.08250
C2808       C  0.60590845  0.47937768  0.75161411    -0.13900
H2809       H  0.59221737  0.51382004  0.77314252     0.12230
H2810       H  0.67254967  0.51777715  0.74297379     0.12230
H2811       H  0.66755155  0.47272572  0.72364801     0.12230
H2812       H  0.58721992  0.46889101  0.75449834     0.12230
C2813       C  0.53397609  0.64314447  0.74090440    -0.13900
C2814       C  0.54020251  0.63184846  0.76566153     0.08250
C2815       C  0.51990364  0.62076100  0.78115737    -0.13900
C2816       C  0.49376011  0.62011341  0.77153696    -0.13900
C2817       C  0.48750402  0.63085233  0.74640223     0.08250
C2818       C  0.50779208  0.64292490  0.73145096    -0.13900
H2819       H  0.54958695  0.65154401  0.72858201     0.12230
H2820       H  0.52447859  0.61150230  0.80004962     0.12230
H2821       H  0.47851717  0.61080379  0.78364732     0.12230
H2822       H  0.50360078  0.65147269  0.71215541     0.12230
C2823       C  0.72759827  0.61645603  0.85665340    -0.13900
C2824       C  0.73147749  0.61718833  0.82894224     0.08250
C2825       C  0.75747373  0.61887663  0.81896709    -0.13900
C2826       C  0.77924991  0.61846269  0.83638466    -0.13900
C2827       C  0.77540111  0.61728582  0.86408294     0.08250
C2828       C  0.74936685  0.61693208  0.87411191    -0.13900
H2829       H  0.70760557  0.61538771  0.86479535     0.12230
H2830       H  0.76095357  0.61949094  0.79778066     0.12230
H2831       H  0.79925463  0.61883087  0.82820495     0.12230
H2832       H  0.74591130  0.61592782  0.89528641     0.12230
C2833       C  0.66529786  0.73245873  0.53485154    -0.13900
C2834       C  0.64125002  0.71804080  0.53383155     0.08250
C2835       C  0.61704790  0.73220157  0.53231067    -0.13900
C2836       C  0.61686392  0.76017391  0.53150671    -0.13900
C2837       C  0.64084415  0.77466658  0.53284442     0.08250
C2838       C  0.66507793  0.76054392  0.53470046    -0.13900
H2839       H  0.68421717  0.72202015  0.53620097     0.12230
H2840       H  0.59821862  0.72160692  0.53143978     0.12230
H2841       H  0.59787860  0.77049431  0.53012900     0.12230
H2842       H  0.68386103  0.77120425  0.53562841     0.12230
C2843       C  0.60966991  0.49782182  0.51901236    -0.13900
C2844       C  0.63292511  0.51284683  0.51543262     0.08250
C2845       C  0.65415550  0.50202127  0.00072070    -0.13900
C2846       C  0.65218551  0.47623032  0.98987988    -0.13900
C2847       C  0.62902009  0.46092273  0.99386616     0.08250
C2848       C  0.60784499  0.47199329  0.50861957    -0.13900
H2849       H  0.59283568  0.50619430  0.52967765     0.12230
H2850       H  0.67197325  0.51374989  0.99716487     0.12230
H2851       H  0.66889939  0.46807227  0.97889314     0.12230
H2852       H  0.58975198  0.46065807  0.51205477     0.12230
C2853       C  0.51855040  0.64334341  0.52363108    -0.13900
C2854       C  0.53523225  0.62314190  0.51354477     0.08250
C2855       C  0.52514545  0.60616141  0.99360708    -0.13900
C2856       C  0.49921448  0.60936897  0.98386059    -0.13900
C2857       C  0.48266889  0.62982467  0.99356365     0.08250
C2858       C  0.49259861  0.64672161  0.51366700    -0.13900
H2859       H  0.52572672  0.65687359  0.53879693     0.12230
H2860       H  0.53741613  0.59038073  0.98529695     0.12230
H2861       H  0.49219012  0.59589645  0.96856998     0.12230
H2862       H  0.48022626  0.66248081  0.52186565     0.12230
C2863       C  0.65478552  0.59347067  0.92329512    -0.13900
C2864       C  0.65584842  0.61819444  0.93647556     0.08250
C2865       C  0.65010298  0.64171636  0.92245451    -0.13900
C2866       C  0.64225128  0.64038401  0.89586897    -0.13900
C2867       C  0.64001817  0.61547108  0.88294143     0.08250
C2868       C  0.64712622  0.59210769  0.89675808    -0.13900
H2869       H  0.65828479  0.57501208  0.93408015     0.12230
H2870       H  0.64982517  0.66086318  0.93254858     0.12230
H2871       H  0.63748954  0.65883202  0.88559018     0.12230
H2872       H  0.64613059  0.57267651  0.88728380     0.12230
C2873       C  0.65104108  0.59587149  0.64635749    -0.13900
C2874       C  0.63812228  0.61702545  0.63309475     0.08250
C2875       C  0.63662879  0.64218830  0.64556319    -0.13900
C2876       C  0.64640804  0.64560777  0.67131939    -0.13900
C2877       C  0.65805119  0.62404747  0.68491939     0.08250
C2878       C  0.66081591  0.59935625  0.67200947    -0.13900
H2879       H  0.65314764  0.57639375  0.63714774     0.12230
H2880       H  0.62735603  0.65906738  0.63568122     0.12230
H2881       H  0.64301401  0.66448535  0.68136896     0.12230
H2882       H  0.66870501  0.58216863  0.68257006     0.12230
C2883       C  0.73327616  0.59492094  0.60153701    -0.13900
C2884       C  0.73130110  0.60995869  0.57783037     0.08250
C2885       C  0.75272570  0.62656285  0.57087456    -0.13900
C2886       C  0.77536390  0.62819006  0.58712464    -0.13900
C2887       C  0.77727143  0.61341900  0.61099799     0.08250
C2888       C  0.75592771  0.59663777  0.61789441    -0.13900
H2889       H  0.71703450  0.58209519  0.60778038     0.12230
H2890       H  0.75193058  0.63851149  0.55296322     0.12230
H2891       H  0.79143222  0.64124616  0.58090641     0.12230
H2892       H  0.75665917  0.58492894  0.63595929     0.12230
C2893       C  0.23542061  0.84390647  0.86202054    -0.13900
C2894       C  0.22097748  0.85817973  0.84276506     0.08250
C2895       C  0.23511347  0.87235439  0.82316736    -0.13900
C2896       C  0.26305391  0.87223357  0.82281012    -0.13900
C2897       C  0.27752746  0.85821629  0.84225209     0.08250
C2898       C  0.26336155  0.84407241  0.86187696    -0.13900
H2899       H  0.22511814  0.83290132  0.87743774     0.12230
H2900       H  0.22455522  0.88344765  0.80797059     0.12230
H2901       H  0.27331148  0.88340648  0.80748480     0.12230
H2902       H  0.27387128  0.83311333  0.87719835     0.12230
C2903       C  0.98522160  0.86784759  0.90579118    -0.13900
C2904       C  0.96427072  0.86720631  0.88745772     0.08250
C2905       C  0.97012382  0.86485833  0.86025175    -0.13900
C2906       C  0.99649755  0.86370158  0.85143093    -0.13900
C2907       C  0.01746646  0.86558978  0.86962499     0.08250
C2908       C  0.01166271  0.86738955  0.89689827    -0.13900
H2909       H  0.98116810  0.86975259  0.92680013     0.12230
H2910       H  0.95421044  0.86419532  0.84573621     0.12230
H2911       H  0.00049798  0.86221118  0.83037632     0.12230
H2912       H  0.02761941  0.86853083  0.91133625     0.12230
C2913       C  0.13132259  0.98358516  0.85057819    -0.13900
C2914       C  0.13095998  0.96248622  0.86885513     0.08250
C2915       C  0.13358132  0.96826730  0.89607951    -0.13900
C2916       C  0.13605995  0.99471106  0.90492369    -0.13900
C2917       C  0.13525201  0.01590498  0.88673910     0.08250
C2918       C  0.13310470  0.01006923  0.85946609    -0.13900
H2919       H  0.12931266  0.97966150  0.82955905     0.12230
H2920       H  0.13357345  0.95225097  0.91058044     0.12230
H2921       H  0.13771746  0.99862065  0.92597579     0.12230
H2922       H  0.13267644  0.02607104  0.84495628     0.12230
C2923       C  0.23906277  0.86223762  0.57181969    -0.13900
C2924       C  0.22466601  0.85744584  0.59515592     0.08250
C2925       C  0.23816250  0.85177883  0.61878766    -0.13900
C2926       C  0.26596329  0.85120334  0.61913368    -0.13900
C2927       C  0.28047624  0.85700762  0.59598491     0.08250
C2928       C  0.26681217  0.86231500  0.57227830    -0.13900
H2929       H  0.22882215  0.86683651  0.55345138     0.12230
H2930       H  0.22720299  0.84795679  0.63691685     0.12230
H2931       H  0.27607298  0.84710354  0.63767414     0.12230
H2932       H  0.27755070  0.86681543  0.55417560     0.12230
C2933       C  0.00444052  0.88815152  0.60601423    -0.13900
C2934       C  0.02351708  0.87250849  0.61927906     0.08250
C2935       C  0.01696503  0.86166892  0.64427638    -0.13900
C2936       C  0.99165141  0.86589365  0.65546406    -0.13900
C2937       C  0.97238330  0.88075754  0.64169970     0.08250
C2938       C  0.97900164  0.89185627  0.61693529    -0.13900
H2939       H  0.00892299  0.89682710  0.58683875     0.12230
H2940       H  0.03142686  0.84983780  0.65515197     0.12230
H2941       H  0.98673783  0.85657795  0.67423819     0.12230
H2942       H  0.96415048  0.90283822  0.60570049     0.12230
C2943       C  0.14740496  0.97227333  0.63246160    -0.13900
C2944       C  0.12845880  0.96484600  0.61309441     0.08250
C2945       C  0.11026214  0.98416617  0.60410973    -0.13900
C2946       C  0.11086061  0.01018023  0.61444457    -0.13900
C2947       C  0.12953928  0.01739457  0.63411670     0.08250
C2948       C  0.14784063  0.99816499  0.64293414    -0.13900
H2949       H  0.16175937  0.95790241  0.63994670     0.12230
H2950       H  0.09525825  0.97906777  0.58952399     0.12230
H2951       H  0.09648376  0.02463590  0.60715516     0.12230
H2952       H  0.16267401  0.00319137  0.65772029     0.12230
C2953       C  0.09613521  0.85782681  0.98366111    -0.13900
C2954       C  0.11997108  0.86424597  0.49669000     0.08250
C2955       C  0.14443851  0.85801363  0.98417535    -0.13900
C2956       C  0.14504865  0.84742099  0.95853282    -0.13900
C2957       C  0.12123793  0.84286214  0.94485348     0.08250
C2958       C  0.09678992  0.84729069  0.95796970    -0.13900
H2959       H  0.07702926  0.86163956  0.99298274     0.12230
H2960       H  0.16326946  0.86211088  0.99387482     0.12230
H2961       H  0.16407714  0.84512206  0.94856346     0.12230
H2962       H  0.07813111  0.84464256  0.94744218     0.12230
C2963       C  0.14200505  0.86386555  0.70657035    -0.13900
C2964       C  0.12196128  0.85001576  0.69269371     0.08250
C2965       C  0.09843974  0.84299084  0.70602815    -0.13900
C2966       C  0.09473994  0.85057916  0.73255294    -0.13900
C2967       C  0.11447860  0.86537731  0.74605992     0.08250
C2968       C  0.13827959  0.87155309  0.73280378    -0.13900
H2969       H  0.16030174  0.86975433  0.69670567     0.12230
H2970       H  0.08245528  0.83289620  0.69562324     0.12230
H2971       H  0.07642141  0.84489454  0.74245300     0.12230
H2972       H  0.15415775  0.88231978  0.74269701     0.12230
C2973       C  0.23645238  0.64039670  0.95301539    -0.13900
C2974       C  0.22264926  0.63778150  0.97706858     0.08250
C2975       C  0.23700680  0.63567715  0.00086045    -0.13900
C2976       C  0.26488609  0.63535718  0.00044791    -0.13900
C2977       C  0.27864606  0.63776348  0.97629737     0.08250
C2978       C  0.26419300  0.64064809  0.95265573    -0.13900
H2979       H  0.22576925  0.64222062  0.93443212     0.12230
H2980       H  0.22669585  0.63356829  0.51962289     0.12230
H2981       H  0.27566317  0.63318755  0.51893467     0.12230
H2982       H  0.27433140  0.64242297  0.93376353     0.12230
C2983       C  0.00416224  0.60792642  0.95632108    -0.13900
C2984       C  0.02029087  0.62913383  0.94777612     0.08250
C2985       C  0.01030282  0.64696266  0.92847239    -0.13900
C2986       C  0.98450210  0.64386244  0.91828743    -0.13900
C2987       C  0.96818495  0.62299385  0.92737160     0.08250
C2988       C  0.97842703  0.60493814  0.94630548    -0.13900
H2989       H  0.01133022  0.59372571  0.97092942     0.12230
H2990       H  0.02244840  0.66330725  0.92117329     0.12230
H2991       H  0.97710607  0.65815940  0.90388911     0.12230
H2992       H  0.96637772  0.58857496  0.95373208     0.12230
C2993       C  0.13982921  0.74400369  0.51595247    -0.13900
C2994       C  0.11588420  0.73167807  0.50839798     0.08250
C2995       C  0.09183456  0.74082380  0.51978036    -0.13900
C2996       C  0.09195892  0.76175127  0.53861779    -0.13900
C2997       C  0.11613031  0.77388793  0.54610779     0.08250
C2998       C  0.13992460  0.76487684  0.53428640    -0.13900
H2999       H  0.15870810  0.73696531  0.50807991     0.12230
H3000       H  0.07317432  0.73106293  0.51496354     0.12230
H3001       H  0.07327103  0.76869000  0.54696015     0.12230
H3002       H  0.15884546  0.77399844  0.53939438     0.12230
C3003       C  0.24330447  0.64664432  0.74238001    -0.13900
C3004       C  0.22891680  0.63844950  0.71981222     0.08250
C3005       C  0.24312385  0.63131774  0.69685131    -0.13900
C3006       C  0.27101081  0.63167458  0.69665651    -0.13900
C3007       C  0.28535250  0.63946577  0.71929171     0.08250
C3008       C  0.27126421  0.64730233  0.74206038    -0.13900
H3009       H  0.23298076  0.65215413  0.76044260     0.12230
H3010       H  0.23271004  0.62504366  0.67911066     0.12230
H3011       H  0.28142186  0.62570733  0.67877696     0.12230
H3012       H  0.28187711  0.65316390  0.75982933     0.12230
C3013       C  0.99190343  0.62361578  0.66162310    -0.13900
C3014       C  0.97116670  0.61728044  0.67925415     0.08250
C3015       C  0.97712599  0.61453970  0.70641340    -0.13900
C3016       C  0.00316502  0.61805694  0.71582637    -0.13900
C3017       C  0.02368816  0.62538831  0.69843729     0.08250
C3018       C  0.01790662  0.62801171  0.67121628    -0.13900
H3019       H  0.98779090  0.62624282  0.64070714     0.12230
H3020       H  0.96143966  0.60989872  0.72047041     0.12230
H3021       H  0.00715111  0.61574397  0.73680932     0.12230
H3022       H  0.03357709  0.63331068  0.65737781     0.12230
C3023       C  0.13727712  0.61564683  0.83573546    -0.13900
C3024       C  0.11532498  0.62321503  0.82042379     0.08250
C3025       C  0.09526813  0.63937104  0.83169361    -0.13900
C3026       C  0.09748677  0.64803020  0.85811344    -0.13900
C3027       C  0.11988944  0.64070294  0.87322949     0.08250
C3028       C  0.13966329  0.62443048  0.86162336    -0.13900
H3029       H  0.15328589  0.60382264  0.82720247     0.12230
H3030       H  0.07862124  0.64620888  0.81977013     0.12230
H3031       H  0.08167908  0.65998878  0.86677060     0.12230
H3032       H  0.15710971  0.61816912  0.87271539     0.12230
C3033       C  0.11436593  0.61187401  0.61404610    -0.13900
C3034       C  0.11246107  0.63812108  0.62437926     0.08250
C3035       C  0.10330170  0.65881019  0.60803633    -0.13900
C3036       C  0.09862788  0.65374813  0.58120486    -0.13900
C3037       C  0.10252816  0.62791681  0.57067078     0.08250
C3038       C  0.10941898  0.60681982  0.58738532    -0.13900
H3039       H  0.12062074  0.59525232  0.62639871     0.12230
H3040       H  0.10119619  0.67900299  0.61559089     0.12230
H3041       H  0.09380504  0.67037271  0.56822273     0.12230
H3042       H  0.11310665  0.58698678  0.57945742     0.12230
C3043       C  0.14011599  0.73117901  0.78403524    -0.13900
C3044       C  0.12040890  0.72631940  0.76457315     0.08250
C3045       C  0.09833289  0.74359679  0.76348374    -0.13900
C3046       C  0.09589510  0.76485471  0.78161053    -0.13900
C3047       C  0.11544163  0.76938181  0.80134193     0.08250
C3048       C  0.13766576  0.75231841  0.80211333    -0.13900
H3049       H  0.15748388  0.71833143  0.78559335     0.12230
H3050       H  0.08266793  0.74033500  0.74906764     0.12230
H3051       H  0.07864628  0.77785671  0.78006085     0.12230
H3052       H  0.15336482  0.75544061  0.81652748     0.12230
C3053       C  0.16709199  0.26244960  0.90761940    -0.13900
C3054       C  0.14262358  0.27625337  0.90710894     0.08250
C3055       C  0.11875957  0.26154837  0.90700818    -0.13900
C3056       C  0.11930944  0.23361119  0.90777306    -0.13900
C3057       C  0.14373835  0.21975857  0.90805657     0.08250
C3058       C  0.16764754  0.23440860  0.90776828    -0.13900
H3059       H  0.18577441  0.27332998  0.90755120     0.12230
H3060       H  0.09962012  0.27167043  0.90667690     0.12230
H3061       H  0.10057404  0.22281345  0.90789595     0.12230
H3062       H  0.18673389  0.22419562  0.90811100     0.12230
C3063       C  0.11654478  0.48624968  0.95500462    -0.13900
C3064       C  0.13084084  0.47994433  0.93167293     0.08250
C3065       C  0.14394363  0.50063266  0.91815270    -0.13900
C3066       C  0.14267563  0.52695341  0.92766422    -0.13900
C3067       C  0.12808499  0.53327643  0.95079932     0.08250
C3068       C  0.11505405  0.51259466  0.96435167    -0.13900
H3069       H  0.10623736  0.47080206  0.96605309     0.12230
H3070       H  0.15514544  0.49651123  0.90024192     0.12230
H3071       H  0.15276012  0.54249158  0.91653091     0.12230
H3072       H  0.10364589  0.51677361  0.98212179     0.12230
C3073       C  0.11771645  0.26207725  0.65820761    -0.13900
C3074       C  0.14199974  0.27607888  0.65791826     0.08250
C3075       C  0.16607741  0.26163831  0.65848548    -0.13900
C3076       C  0.16584554  0.23363321  0.65901501    -0.13900
C3077       C  0.14153287  0.21968025  0.65960964     0.08250
C3078       C  0.11748559  0.23416448  0.65933116    -0.13900
H3079       H  0.09886525  0.27273236  0.65788750     0.12230
H3080       H  0.18505705  0.27198548  0.65816314     0.12230
H3081       H  0.18465097  0.22290518  0.65934138     0.12230
H3082       H  0.09846354  0.22388763  0.65968239     0.12230
C3083       C  0.14874448  0.52451692  0.68108609    -0.13900
C3084       C  0.13127090  0.53199661  0.70177258     0.08250
C3085       C  0.11410354  0.51262383  0.71239616    -0.13900
C3086       C  0.11434521  0.48645537  0.70252952    -0.13900
C3087       C  0.13160623  0.47908162  0.68165795     0.08250
C3088       C  0.14882814  0.49840965  0.67108041    -0.13900
H3089       H  0.16211725  0.53899162  0.67220644     0.12230
H3090       H  0.10024518  0.51774569  0.72808517     0.12230
H3091       H  0.10084371  0.47198655  0.71122707     0.12230
H3092       H  0.16252788  0.49331968  0.65524177     0.12230
C3093       C  0.16324208  0.39312419  0.77047580    -0.13900
C3094       C  0.15694886  0.36975822  0.75645638     0.08250
C3095       C  0.14219696  0.34960277  0.76913724    -0.13900
C3096       C  0.13286555  0.35325153  0.79502373    -0.13900
C3097       C  0.13785126  0.37732440  0.80858817     0.08250
C3098       C  0.15384608  0.39687416  0.79629765    -0.13900
H3099       H  0.17363948  0.40937919  0.76069089     0.12230
H3100       H  0.13610291  0.33193289  0.75825805     0.12230
H3101       H  0.12108657  0.33755726  0.80410577     0.12230
H3102       H  0.15874252  0.41532539  0.80645227     0.12230
C3103       C  0.13405661  0.35111349  0.51822328    -0.13900
C3104       C  0.15224620  0.36851550  0.50591213     0.08250
C3105       C  0.16320117  0.38963161  0.52051648    -0.13900
C3106       C  0.15525685  0.39395035  0.54673971    -0.13900
C3107       C  0.13626642  0.37713779  0.55882487     0.08250
C3108       C  0.12633659  0.35519452  0.54452802    -0.13900
H3109       H  0.12451135  0.33537986  0.00689674     0.12230
H3110       H  0.17638235  0.40392335  0.51105054     0.12230
H3111       H  0.16379588  0.41064309  0.55746857     0.12230
H3112       H  0.11203794  0.34164094  0.55342258     0.12230
C3113       C  0.38534771  0.26060027  0.78557345    -0.13900
C3114       C  0.36128322  0.27504569  0.78573737     0.08250
C3115       C  0.33699234  0.26101918  0.78545095    -0.13900
C3116       C  0.33680732  0.23299153  0.78520216    -0.13900
C3117       C  0.36090801  0.21860034  0.78457064     0.08250
C3118       C  0.38516051  0.23267177  0.78469306    -0.13900
H3119       H  0.40434831  0.27092090  0.78570688     0.12230
H3120       H  0.31816906  0.27171761  0.78570755     0.12230
H3121       H  0.31785637  0.22258942  0.78500991     0.12230
H3122       H  0.40403080  0.22205121  0.78432732     0.12230
C3123       C  0.47296450  0.36580316  0.73475216    -0.13900
C3124       C  0.46703250  0.36651259  0.76206156     0.08250
C3125       C  0.48804932  0.36564713  0.78034313    -0.13900
C3126       C  0.51454450  0.36533322  0.77139756    -0.13900
C3127       C  0.52043251  0.36523058  0.74404380     0.08250
C3128       C  0.49935396  0.36487601  0.72584152    -0.13900
H3129       H  0.45708927  0.36620923  0.72018466     0.12230
H3130       H  0.48403135  0.36618707  0.80143443     0.12230
H3131       H  0.53047791  0.36538549  0.78589854     0.12230
H3132       H  0.50326910  0.36478594  0.70472072     0.12230
C3133       C  0.39793176  0.48851812  0.75402807    -0.13900
C3134       C  0.37271369  0.47782340  0.75968576     0.08250
C3135       C  0.34977039  0.49242720  0.75272564    -0.13900
C3136       C  0.35216475  0.51758888  0.74044244    -0.13900
C3137       C  0.37752602  0.52853164  0.73544244     0.08250
C3138       C  0.40032077  0.51373206  0.74240459    -0.13900
H3139       H  0.41586160  0.47733744  0.75878090     0.12230
H3140       H  0.33012321  0.48416334  0.75631518     0.12230
H3141       H  0.33430641  0.52892738  0.73584304     0.12230
H3142       H  0.42007685  0.52190612  0.73917148     0.12230
C3143       C  0.24771962  0.38152212  0.81809003    -0.13900
C3144       C  0.27358037  0.38194508  0.82857605     0.08250
C3145       C  0.27684110  0.38232441  0.85636156    -0.13900
C3146       C  0.25467454  0.38234693  0.87337399    -0.13900
C3147       C  0.22882487  0.38299782  0.86287361     0.08250
C3148       C  0.22555800  0.38252051  0.83509235    -0.13900
H3149       H  0.24467821  0.38122792  0.79683569     0.12230
H3150       H  0.29667289  0.38247681  0.86491937     0.12230
H3151       H  0.25771522  0.38261802  0.89462888     0.12230
H3152       H  0.20572991  0.38273522  0.82653864     0.12230
C3153       C  0.38804335  0.26129288  0.53618182    -0.13900
C3154       C  0.36389501  0.27556891  0.53474653     0.08250
C3155       C  0.33980703  0.26131617  0.53282946    -0.13900
C3156       C  0.33990786  0.23326572  0.53260669    -0.13900
C3157       C  0.36413267  0.21909551  0.53364115     0.08250
C3158       C  0.38817466  0.23337144  0.53533860    -0.13900
H3159       H  0.40691989  0.27173533  0.53762646     0.12230
H3160       H  0.32091338  0.27183760  0.03183391     0.12230
H3161       H  0.32112544  0.22266438  0.03114119     0.12230
H3162       H  0.40711212  0.22290466  0.53626281     0.12230
C3163       C  0.48047923  0.38824143  0.99586385    -0.13900
C3164       C  0.47003197  0.36943209  0.51394965     0.08250
C3165       C  0.48599316  0.34758523  0.52157154    -0.13900
C3166       C  0.51180100  0.34462222  0.51114477    -0.13900
C3167       C  0.52184324  0.36331991  0.99287206     0.08250
C3168       C  0.50614384  0.38524824  0.98552184    -0.13900
H3169       H  0.46874181  0.40535898  0.98962189     0.12230
H3170       H  0.47840233  0.33265235  0.53519625     0.12230
H3171       H  0.52406362  0.32793891  0.51754548     0.12230
H3172       H  0.51393383  0.40030119  0.97211882     0.12230
C3173       C  0.35930994  0.49956847  0.52477959    -0.13900
C3174       C  0.37561302  0.47997889  0.51321039     0.08250
C3175       C  0.39282925  0.48750994  0.49234460    -0.13900
C3176       C  0.39381075  0.51401668  0.48335898    -0.13900
C3177       C  0.37751564  0.53363001  0.99494063     0.08250
C3178       C  0.36019000  0.52603859  0.01571122    -0.13900
H3179       H  0.34570978  0.49441621  0.54067409     0.12230
H3180       H  0.40569813  0.47288515  0.48293119     0.12230
H3181       H  0.40747637  0.51916778  0.46752154     0.12230
H3182       H  0.34735692  0.54063710  0.02520688     0.12230
C3183       C  0.34363082  0.39371076  0.92220166    -0.13900
C3184       C  0.35146993  0.37082535  0.93628986     0.08250
C3185       C  0.36672512  0.35114575  0.92344103    -0.13900
C3186       C  0.37467767  0.35462514  0.89710332    -0.13900
C3187       C  0.36781974  0.37808924  0.88323631     0.08250
C3188       C  0.35163316  0.39728886  0.89588649    -0.13900
H3189       H  0.33283742  0.40964346  0.93211635     0.12230
H3190       H  0.37398595  0.33391084  0.93435932     0.12230
H3191       H  0.38672485  0.33923181  0.88781686     0.12230
H3192       H  0.34540830  0.41527341  0.88557037     0.12230
C3193       C  0.35077974  0.39514660  0.64547947    -0.13900
C3194       C  0.36783157  0.37621039  0.63356928     0.08250
C3195       C  0.37387133  0.35254823  0.64744554    -0.13900
C3196       C  0.36447998  0.34876678  0.67328691    -0.13900
C3197       C  0.34860458  0.36835004  0.68557925     0.08250
C3198       C  0.34132170  0.39125656  0.67125059    -0.13900
H3199       H  0.34506373  0.41323572  0.63505160     0.12230
H3200       H  0.38649293  0.33732773  0.63864338     0.12230
H3201       H  0.37131621  0.33150788  0.68443551     0.12230
H3202       H  0.33003477  0.40711048  0.68074250     0.12230
C3203       C  0.25632082  0.37659064  0.62323692    -0.13900
C3204       C  0.23103000  0.38327099  0.61330439     0.08250
C3205       C  0.22849078  0.38898464  0.58598738    -0.13900
C3206       C  0.25068096  0.38815056  0.56900880    -0.13900
C3207       C  0.27602661  0.38230881  0.57912661     0.08250
C3208       C  0.27867363  0.37661959  0.60638820    -0.13900
H3209       H  0.25889482  0.37199187  0.64406919     0.12230
H3210       H  0.20916465  0.39384228  0.57767142     0.12230
H3211       H  0.24816218  0.39274638  0.54816618     0.12230
H3212       H  0.29814166  0.37213781  0.61462799     0.12230
C3213       C  0.76701577  0.13742511  0.86905987    -0.13900
C3214       C  0.78095589  0.13940737  0.84501387     0.08250
C3215       C  0.76653394  0.14127871  0.82120991    -0.13900
C3216       C  0.73854727  0.14160982  0.82149186    -0.13900
C3217       C  0.72458336  0.13900004  0.84550012     0.08250
C3218       C  0.73906050  0.13671771  0.86925780    -0.13900
H3219       H  0.77778508  0.13578136  0.88760726     0.12230
H3220       H  0.77695576  0.14276798  0.80244699     0.12230
H3221       H  0.72779974  0.14324375  0.80293375     0.12230
H3222       H  0.72869995  0.13472043  0.88800841     0.12230
C3223       C  0.89616985  0.99305719  0.88425995    -0.13900
C3224       C  0.87108200  0.98139432  0.88856478     0.08250
C3225       C  0.84800668  0.99546665  0.88094800    -0.13900
C3226       C  0.85010968  0.02089061  0.86917746    -0.13900
C3227       C  0.87527924  0.03269809  0.86543052     0.08250
C3228       C  0.89822429  0.01857131  0.87320229    -0.13900
H3229       H  0.91425009  0.98240081  0.88958482     0.12230
H3230       H  0.82848711  0.98654078  0.88351224     0.12230
H3231       H  0.83212082  0.03168781  0.86386482     0.12230
H3232       H  0.91781796  0.02742085  0.87086779     0.12230
C3233       C  0.00692618  0.13171486  0.85140757    -0.13900
C3234       C  0.98600705  0.13155402  0.86980544     0.08250
C3235       C  0.99204878  0.13039697  0.89707781    -0.13900
C3236       C  0.01856738  0.12903278  0.90577275    -0.13900
C3237       C  0.03942000  0.12802003  0.88728996     0.08250
C3238       C  0.03334831  0.12960771  0.86005607    -0.13900
H3239       H  0.00281158  0.13255871  0.83034398     0.12230
H3240       H  0.97619560  0.13044654  0.91169077     0.12230
H3241       H  0.02271574  0.12788828  0.92681317     0.12230
H3242       H  0.04913091  0.12914071  0.84537493     0.12230
C3243       C  0.76737009  0.13884370  0.57148965    -0.13900
C3244       C  0.78142472  0.13619923  0.59541311     0.08250
C3245       C  0.76754734  0.13492023  0.61948601    -0.13900
C3246       C  0.73981860  0.13606642  0.61960283    -0.13900
C3247       C  0.72578809  0.13777697  0.59560837     0.08250
C3248       C  0.73963746  0.13926063  0.57156376    -0.13900
H3249       H  0.77780236  0.13970190  0.55269030     0.12230
H3250       H  0.77812372  0.13293517  0.63811258     0.12230
H3251       H  0.72930567  0.13468482  0.63832968     0.12230
H3252       H  0.72900750  0.14060881  0.55291027     0.12230
C3253       C  0.90388208  0.01520024  0.62138311    -0.13900
C3254       C  0.88121493  0.02933931  0.61281143     0.08250
C3255       C  0.85597345  0.01754336  0.61590683    -0.13900
C3256       C  0.85331746  0.99224781  0.62745614    -0.13900
C3257       C  0.87580441  0.97832123  0.63683946     0.08250
C3258       C  0.90118445  0.98997671  0.63349742    -0.13900
H3259       H  0.92348947  0.02416716  0.61981770     0.12230
H3260       H  0.83815046  0.02824308  0.60986221     0.12230
H3261       H  0.83352922  0.98378459  0.62947430     0.12230
H3262       H  0.91893766  0.97954689  0.64013297     0.12230
C3263       C  0.00076890  0.11390165  0.60637548    -0.13900
C3264       C  0.98263960  0.13179288  0.61792588     0.08250
C3265       C  0.99081642  0.14680453  0.64017136    -0.13900
C3266       C  0.01672392  0.14401828  0.65048487    -0.13900
C3267       C  0.03493164  0.12629340  0.63861218     0.08250
C3268       C  0.02650253  0.11124003  0.61650160    -0.13900
H3269       H  0.99510939  0.10195778  0.58936960     0.12230
H3270       H  0.97709937  0.16050210  0.64976844     0.12230
H3271       H  0.02261179  0.15599752  0.66737885     0.12230
H3272       H  0.03992377  0.09738239  0.60671728     0.12230
C3273       C  0.85970843  0.12553668  0.98383505    -0.13900
C3274       C  0.88432256  0.12618717  0.49732866     0.08250
C3275       C  0.90621539  0.13856502  0.98507284    -0.13900
C3276       C  0.90376574  0.14902015  0.95941090    -0.13900
C3277       C  0.87936199  0.14756372  0.94573411     0.08250
C3278       C  0.85729180  0.13606357  0.95831687    -0.13900
H3279       H  0.84232231  0.11642486  0.99285517     0.12230
H3280       H  0.92520486  0.13999019  0.49520969     0.12230
H3281       H  0.92137187  0.15671058  0.94953654     0.12230
H3282       H  0.83869982  0.13345561  0.94766150     0.12230
C3283       C  0.90813116  0.14414655  0.73268237    -0.13900
C3284       C  0.88745311  0.13115409  0.74661036     0.08250
C3285       C  0.86322029  0.12624189  0.73358153    -0.13900
C3286       C  0.85998791  0.13336744  0.70710966    -0.13900
C3287       C  0.88087565  0.14553482  0.69298114     0.08250
C3288       C  0.90485171  0.15129425  0.70603859    -0.13900
H3289       H  0.92687840  0.14871576  0.74232937     0.12230
H3290       H  0.84665796  0.11691159  0.74382401     0.12230
H3291       H  0.84142057  0.12838559  0.69727976     0.12230
H3292       H  0.92147210  0.15994983  0.69530634     0.12230
C3293       C  0.76693695  0.35150450  0.49463153    -0.13900
C3294       C  0.78154139  0.35608503  0.97137963     0.08250
C3295       C  0.76815386  0.36123810  0.94753790    -0.13900
C3296       C  0.74027736  0.36210230  0.94702304    -0.13900
C3297       C  0.72559673  0.35702361  0.97019301     0.08250
C3298       C  0.73907678  0.35151179  0.99395392    -0.13900
H3299       H  0.77711807  0.34774470  0.51321196     0.12230
H3300       H  0.77928107  0.36506582  0.92951065     0.12230
H3301       H  0.73015952  0.36631311  0.92850569     0.12230
H3302       H  0.72803677  0.34771766  0.51204020     0.12230
C3303       C  0.85156258  0.47729454  0.95419273    -0.13900
C3304       C  0.87555451  0.46288346  0.95156206     0.08250
C3305       C  0.89673146  0.47440876  0.93724343    -0.13900
C3306       C  0.89409850  0.49972740  0.92588636    -0.13900
C3307       C  0.87005692  0.51386208  0.92802665     0.08250
C3308       C  0.84880015  0.50263089  0.94237130    -0.13900
H3309       H  0.83480053  0.46870107  0.96473940     0.12230
H3310       H  0.91540763  0.46373610  0.93473320     0.12230
H3311       H  0.91096947  0.50845540  0.91559213     0.12230
H3312       H  0.83039411  0.51373626  0.94497647     0.12230
C3313       C  0.99076930  0.35269941  0.92349179    -0.13900
C3314       C  0.98307145  0.36543730  0.94715663     0.08250
C3315       C  0.00147904  0.38117983  0.96080267    -0.13900
C3316       C  0.02729594  0.38423482  0.95097923    -0.13900
C3317       C  0.03546674  0.37116360  0.92750811     0.08250
C3318       C  0.01692098  0.35524058  0.91388641    -0.13900
H3319       H  0.97652482  0.34076140  0.91251605     0.12230
H3320       H  0.99566908  0.39167139  0.97870310     0.12230
H3321       H  0.04096733  0.39671058  0.96207131     0.12230
H3322       H  0.02260110  0.34479193  0.89594002     0.12230
C3323       C  0.90751328  0.26430536  0.53461524    -0.13900
C3324       C  0.89032312  0.26727900  0.51258201     0.08250
C3325       C  0.87147086  0.24715974  0.50771941    -0.13900
C3326       C  0.86984870  0.22473321  0.52431558    -0.13900
C3327       C  0.88686975  0.22180461  0.54644894     0.08250
C3328       C  0.90574518  0.24190156  0.55138653    -0.13900
H3329       H  0.92209106  0.27958504  0.53925238     0.12230
H3330       H  0.85770441  0.24887363  0.49125851     0.12230
H3331       H  0.85499106  0.20967772  0.51982393     0.12230
H3332       H  0.91924358  0.24023859  0.56806812     0.12230
C3333       C  0.76567137  0.38468265  0.72010450    -0.13900
C3334       C  0.77982672  0.36044141  0.72163308     0.08250
C3335       C  0.76557098  0.33623122  0.72248661    -0.13900
C3336       C  0.73763512  0.33629867  0.72208949    -0.13900
C3337       C  0.72349604  0.36054713  0.72019100     0.08250
C3338       C  0.73781021  0.38472034  0.71908530    -0.13900
H3339       H  0.77617122  0.40361736  0.71934098     0.12230
H3340       H  0.77602709  0.31727084  0.72382054     0.12230
H3341       H  0.72711082  0.31738304  0.72286522     0.12230
H3342       H  0.72744037  0.40372651  0.71770024     0.12230
C3343       C  0.89531945  0.47481597  0.67991406    -0.13900
C3344       C  0.87778959  0.46507835  0.69955013     0.08250
C3345       C  0.85775513  0.48220523  0.70915244    -0.13900
C3346       C  0.85501452  0.50822500  0.69897374    -0.13900
C3347       C  0.87237960  0.51782151  0.67910073     0.08250
C3348       C  0.89273360  0.50085049  0.66992512    -0.13900
H3349       H  0.91098000  0.46216203  0.67198658     0.12230
H3350       H  0.84378662  0.47528941  0.72404002     0.12230
H3351       H  0.83929670  0.52087803  0.70678299     0.12230
H3352       H  0.90659197  0.50760889  0.65486488     0.12230
C3353       C  0.00443561  0.36608859  0.71616307    -0.13900
C3354       C  0.98363594  0.36500290  0.69767869     0.08250
C3355       C  0.98988598  0.36469725  0.67041911    -0.13900
C3356       C  0.01645092  0.36579904  0.66181310    -0.13900
C3357       C  0.03717824  0.36790491  0.68031761     0.08250
C3358       C  0.03089916  0.36783144  0.70756603    -0.13900
H3359       H  0.00020215  0.36639622  0.73722138     0.12230
H3360       H  0.97416817  0.36368191  0.65572144     0.12230
H3361       H  0.02072220  0.36579246  0.64076353     0.12230
H3362       H  0.04654040  0.36918472  0.72231859     0.12230
C3363       C  0.89833263  0.34530614  0.83224348    -0.13900
C3364       C  0.88066852  0.36355424  0.82009978     0.08250
C3365       C  0.85802162  0.37209155  0.83418657    -0.13900
C3366       C  0.85411508  0.36393448  0.86040766    -0.13900
C3367       C  0.87244178  0.34670389  0.87281226     0.08250
C3368       C  0.89422412  0.33695620  0.85835878    -0.13900
H3369       H  0.91559308  0.33772517  0.82169326     0.12230
H3370       H  0.84376431  0.38568029  0.82522922     0.12230
H3371       H  0.83774461  0.37249871  0.87162733     0.12230
H3372       H  0.90915120  0.32453247  0.86790502     0.12230
C3373       C  0.90108288  0.34575798  0.58423670    -0.13900
C3374       C  0.88137846  0.36091859  0.57114980     0.08250
C3375       C  0.85703232  0.36576842  0.58421466    -0.13900
C3376       C  0.85318263  0.35708344  0.61031221    -0.13900
C3377       C  0.87341187  0.34310906  0.62369997     0.08250
C3378       C  0.89712768  0.33700173  0.61024234    -0.13900
H3379       H  0.91982020  0.34104903  0.57457869     0.12230
H3380       H  0.84120496  0.37686251  0.57453133     0.12230
H3381       H  0.83522037  0.36305834  0.62073749     0.12230
H3382       H  0.91345155  0.32729970  0.62058755     0.12230
C3383       C  0.86316856  0.25913641  0.77630178    -0.13900
C3384       C  0.88729533  0.27009343  0.76692569     0.08250
C3385       C  0.91137754  0.26014162  0.77734347    -0.13900
C3386       C  0.91145300  0.23949897  0.79614063    -0.13900
C3387       C  0.88743648  0.22856952  0.80568104     0.08250
C3388       C  0.86323330  0.23872537  0.79563661    -0.13900
H3389       H  0.84425637  0.26677484  0.76913866     0.12230
H3390       H  0.93029653  0.26835083  0.77088662     0.12230
H3391       H  0.93044729  0.23185850  0.80310679     0.12230
H3392       H  0.84441728  0.23027820  0.80207269     0.12230
loop_ 
_geom_bond_atom_site_label_1 
_geom_bond_atom_site_label_2 
_geom_bond_distance 
_geom_bond_site_symmetry_2 
_ccdc_geom_bond_type 
Zn1           O5   1.948       .  S
Zn1           O6   2.006       .  S
Zn1          O10   1.995       .  S
Zn1          O17   2.051       .  S
Zn2           O5   1.968       .  S
Zn2           O7   2.021       .  S
Zn2           O9   2.076       .  S
Zn2          O13   2.079       .  S
Zn3           O5   1.947       .  S
Zn3           O8   2.021       .  S
Zn3          O11   2.015       .  S
Zn3          O14   2.070       .  S
Zn4           O5   1.905       .  S
Zn4          O12   1.984       .  S
Zn4          O15   1.929       .  S
Zn4          O16   1.984       .  S
O6           C18   1.272       .  A
O7           C19   1.274       .  A
O8           C20   1.277       .  A
O9           C18   1.280       .  A
O10          C20   1.275       .  A
O11          C19   1.274       .  A
O12          C21   1.269       .  A
O13          C22   1.282       .  A
O14          C21   1.280       .  A
O15          C22   1.265       .  A
O16          C23   1.268       .  A
O17          C23   1.277       .  A
C18        C1688   1.492       .  S
C19        C1638   1.477       .  S
C20        C1668   1.479       .  S
C21        C1648   1.488       .  S
C22        C1681   1.459       .  S
C23        C1658   1.479       .  S
Zn24         O28   1.943       .  S
Zn24         O29   1.998       .  S
Zn24         O40   2.047       .  S
Zn24       O1729   2.002       .  S
Zn25         O28   1.960       .  S
Zn25         O30   2.024       .  S
Zn25         O32   2.067       .  S
Zn25         O36   2.068       .  S
Zn26         O28   1.946       .  S
Zn26         O34   1.996       .  S
Zn26         O37   2.066       .  S
Zn26       O1727   2.017       .  S
Zn27         O28   1.895       .  S
Zn27         O35   1.965       .  S
Zn27         O38   1.934       .  S
Zn27         O39   1.980       .  S
O29          C41   1.272       .  A
O30          C42   1.274       .  A
O31       Zn1722   2.017   1_554  S
O31          C43   1.276       .  A
O32          C41   1.282       .  A
O33       Zn1720   2.002   1_554  S
O33          C43   1.275       .  A
O34          C42   1.271       .  A
O35          C44   1.268       .  A
O36          C45   1.280       .  A
O37          C44   1.279       .  A
O38          C45   1.264       .  A
O39          C46   1.267       .  A
O40          C46   1.277       .  A
C41        C3324   1.492       .  S
C42        C1598   1.461       .  S
C43        C1678   1.481       .  S
C44        C1608   1.479       .  S
C45        C1671   1.459       .  S
C46        C1618   1.466       .  S
Zn47         O51   1.897       .  S
Zn47         O52   1.973       .  S
Zn47         O56   1.957       .  S
Zn47         O63   1.951       .  S
Zn48         O51   1.949       .  S
Zn48         O53   2.064       .  S
Zn48         O55   2.101       .  S
Zn48         O59   2.014       .  S
Zn49         O51   1.897       .  S
Zn49         O54   1.989       .  S
Zn49         O57   1.934       .  S
Zn49         O60   1.973       .  S
Zn50         O51   1.950       .  S
Zn50         O58   2.084       .  S
Zn50         O61   2.032       .  S
Zn50         O62   2.081       .  S
O52          C64   1.270       .  A
O53          C65   1.282       .  A
O54          C66   1.268       .  A
O55          C64   1.286       .  A
O56          C66   1.264       .  A
O57          C65   1.267       .  A
O58          C67   1.282       .  A
O59          C68   1.274       .  A
O60          C67   1.270       .  A
O61          C68   1.278       .  A
O62          C69   1.280       .  A
O63          C69   1.263       .  A
C64        C1631   1.492       .  S
C65        C1591   1.466       .  S
C66        C1548   1.457       .  S
C67        C1558   1.478       .  S
C68        C1568   1.483       .  S
C69        C1578   1.478   1_554  S
Zn70         O74   1.969       .  S
Zn70         O75   2.089       .  S
Zn70         O79   2.082       .  S
Zn70         O86   2.040       .  S
Zn71         O74   1.955       .  S
Zn71         O76   2.049       .  S
Zn71         O78   1.993       .  S
Zn71         O82   1.994       .  S
Zn72         O74   1.910       .  S
Zn72         O77   1.923       .  S
Zn72         O80   1.980       .  S
Zn72         O83   1.971       .  S
Zn73         O74   1.953       .  S
Zn73         O81   2.066       .  S
Zn73         O84   2.015       .  S
Zn73         O85   2.023       .  S
O75          C87   1.283       .  A
O76          C88   1.275       .  A
O77          C89   1.263       .  A
O78          C87   1.271       .  A
O79          C89   1.283       .  A
O80          C88   1.266       .  A
O81          C90   1.278       .  A
O82          C91   1.273       .  A
O83          C90   1.268       .  A
O84          C91   1.277       .  A
O85          C92   1.273       .  A
O86          C92   1.275       .  A
C87        C1691   1.490       .  S
C88        C1538   1.478       .  S
C89        C1581   1.460       .  S
C90        C1531   1.475       .  S
C91        C1588   1.477       .  S
C92        C1518   1.476       .  S
Zn93         O97   1.948       .  S
Zn93         O98   1.999       .  S
Zn93        O102   2.004       .  S
Zn93        O109   2.065       .  S
Zn94         O97   1.948       .  S
Zn94         O99   1.998       .  S
Zn94        O101   2.016       .  S
Zn94        O105   2.067       .  S
Zn95         O97   1.975       .  S
Zn95        O100   2.075       .  S
Zn95        O103   2.032       .  S
Zn95       O1802   2.073   1_554  S
Zn96         O97   1.904       .  S
Zn96        O107   1.964       .  S
Zn96        O108   1.971       .  S
Zn96       O1800   1.936   1_554  S
O98         C110   1.276       .  A
O99         C111   1.272       .  A
O100        C112   1.281       .  A
O101        C110   1.276       .  A
O102        C112   1.271       .  A
O103        C111   1.275       .  A
O104      Zn1792   1.936       .  S
O104        C113   1.264       .  A
O105        C114   1.279       .  A
O106      Zn1791   2.073       .  S
O106        C113   1.281       .  A
O107        C114   1.267       .  A
O108        C115   1.267       .  A
O109        C115   1.279       .  A
C110       C1498   1.480       .  S
C111       C1458   1.477       .  S
C112       C1511   1.482       .  S
C113       C1488   1.460       .  S
C114       C1468   1.482       .  S
C115       C1478   1.484       .  S
Zn116       O120   1.977       .  S
Zn116       O121   2.023       .  S
Zn116       O125   2.074       .  S
Zn116       O132   2.076       .  S
Zn117       O120   1.946       .  S
Zn117       O122   2.069       .  S
Zn117       O124   2.006       .  S
Zn117       O128   2.010       .  S
Zn118       O120   1.901       .  S
Zn118       O123   1.927       .  S
Zn118       O126   1.967       .  S
Zn118       O129   1.972       .  S
Zn119       O120   1.945       .  S
Zn119       O127   2.064       .  S
Zn119       O130   2.009       .  S
Zn119       O131   1.991       .  S
O121        C133   1.275       .  A
O122        C134   1.278       .  A
O123        C135   1.263       .  A
O124        C133   1.274       .  A
O125        C135   1.280       .  A
O126        C134   1.266       .  A
O127        C136   1.278       .  A
O128        C137   1.276       .  A
O129        C136   1.268       .  A
O130        C137   1.277       .  A
O131        C138   1.270       .  A
O132        C138   1.280       .  A
C133       C1418   1.475       .  S
C134       C1428   1.480       .  S
C135       C1501   1.459       .  S
C136       C1438   1.471       .  S
C137       C1491   1.480       .  S
C138       C1448   1.482       .  S
Zn139       O143   1.905       .  S
Zn139       O144   1.972       .  S
Zn139       O148   1.972       .  S
Zn139       O155   1.928       .  S
Zn140       O143   1.944       .  S
Zn140       O145   2.009       .  S
Zn140       O147   2.063       .  S
Zn140       O151   2.000       .  S
Zn141       O143   1.944       .  S
Zn141       O146   2.058       .  S
Zn141       O149   2.005       .  S
Zn141       O152   2.001       .  S
Zn142       O143   1.977       .  S
Zn142       O150   2.079       .  S
Zn142       O153   2.024       .  S
Zn142       O154   2.076       .  S
O144        C156   1.267       .  A
O145        C157   1.275       .  A
O146        C158   1.279       .  A
O147        C156   1.278       .  A
O148        C158   1.268       .  A
O149        C157   1.276       .  A
O150        C159   1.281       .  A
O151        C160   1.273       .  A
O152        C159   1.271       .  A
O153        C160   1.275       .  A
O154        C161   1.280       .  A
O155        C161   1.263       .  A
C156       C1661   1.480       .  S
C157       C1411   1.478       .  S
C158       C1391   1.482       .  S
C159       C1508   1.489       .  S
C160       C1378   1.474       .  S
C161       C1398   1.460       .  S
Zn162       O166   1.893       .  S
Zn162       O167   1.952       .  S
Zn162       O171   1.970       .  S
Zn162       O178   1.930       .  S
Zn163       O166   1.947       .  S
Zn163       O168   2.014       .  S
Zn163       O170   2.069       .  S
Zn163       O174   2.005       .  S
Zn164       O166   1.945       .  S
Zn164       O169   2.073       .  S
Zn164       O172   2.006       .  S
Zn164       O175   1.999       .  S
Zn165       O166   1.971       .  S
Zn165       O173   2.070       .  S
Zn165       O176   2.029       .  S
Zn165       O177   2.075       .  S
O167        C179   1.266       .  A
O168        C180   1.276       .  A
O169        C181   1.281       .  A
O170        C179   1.279       .  A
O171        C181   1.267       .  A
O172        C180   1.277       .  A
O173        C182   1.280       .  A
O174        C183   1.273       .  A
O175        C182   1.271       .  A
O176        C183   1.275       .  A
O177        C184   1.281       .  A
O178        C184   1.263       .  A
C179       C1621   1.484       .  S
C180       C1401   1.481       .  S
C181       C1368   1.487       .  S
C182       C1451   1.482       .  S
C183       C1358   1.477       .  S
C184       C3104   1.460       .  S
Zn185       O189   1.908       .  S
Zn185       O190   1.971       .  S
Zn185       O194   2.023       .  S
Zn185       O201   1.928       .  S
Zn186       O189   1.956       .  S
Zn186       O191   2.047       .  S
Zn186       O193   2.060       .  S
Zn186       O197   2.034       .  S
Zn187       O189   1.910       .  S
Zn187       O192   2.011       .  S
Zn187       O195   1.951       .  S
Zn187       O198   1.965       .  S
Zn188       O189   1.970       .  S
Zn188       O196   2.112       .  S
Zn188       O199   2.039       .  S
Zn188       O200   2.056       .  S
O190        C202   1.269       .  A
O191        C203   1.277       .  A
O192        C204   1.270       .  A
O193        C202   1.280       .  A
O194        C204   1.272       .  A
O195        C203   1.269       .  A
O196        C205   1.287       .  A
O197        C206   1.274       .  A
O198        C205   1.269       .  A
O199        C206   1.275       .  A
O200        C207   1.282       .  A
O201        C207   1.266       .  A
C202       C1388   1.483       .  S
C203       C1328   1.461       .  S
C204       C1308   1.485       .  S
C205       C1348   1.494       .  S
C206       C1321   1.482       .  S
C207       C1338   1.472       .  S
Zn208       O212   1.900       .  S
Zn208       O213   1.974       .  S
Zn208       O217   1.979       .  S
Zn208       O224   1.906       .  S
Zn209       O212   1.962       .  S
Zn209       O216   2.069       .  S
Zn209       O220   2.028       .  S
Zn209      O1910   2.049       .  S
Zn210       O212   1.916       .  S
Zn210       O215   2.008       .  S
Zn210      O1914   1.934       .  S
Zn210      O1917   1.968       .  S
Zn211       O212   1.977       .  S
Zn211       O219   2.093       .  S
Zn211       O222   1.993       .  S
Zn211       O223   2.072       .  S
O213        C225   1.267       .  A
O214      Zn1905   2.049   1_554  S
O214        C226   1.278       .  A
O215        C227   1.270       .  A
O216        C225   1.280       .  A
O217        C227   1.268       .  A
O218      Zn1906   1.934   1_554  S
O218        C226   1.266       .  A
O219        C228   1.282       .  A
O220        C229   1.277       .  A
O221      Zn1906   1.968   1_554  S
O221       C1924   1.268   1_554  A
O222        C229   1.271       .  A
O223        C230   1.280       .  A
O224        C230   1.263       .  A
C225       C1371   1.485       .  S
C226       C1341   1.455       .  S
C227       C1278   1.466       .  S
C228       O1917   1.268       .  A
C228       C2994   1.483       .  S
C229       C1288   1.479       .  S
C230       C1331   1.473       .  S
Zn231       O235   1.904       .  S
Zn231       O236   1.962       .  S
Zn231       O240   1.968       .  S
Zn231       O247   1.951       .  S
Zn232       O235   1.955       .  S
Zn232       O237   2.082       .  S
Zn232       O239   2.116       .  S
Zn232       O243   2.020       .  S
Zn233       O235   1.892       .  S
Zn233       O238   1.995       .  S
Zn233       O241   1.922       .  S
Zn233       O244   1.958       .  S
Zn234       O235   1.955       .  S
Zn234       O242   2.079       .  S
Zn234       O245   2.043       .  S
Zn234       O246   2.081       .  S
O236        C248   1.270       .  A
O237        C249   1.284       .  A
O238        C250   1.268       .  A
O239        C248   1.287       .  A
O240        C250   1.265       .  A
O241        C249   1.265       .  A
O242        C251   1.284       .  A
O243        C252   1.275       .  A
O244        C251   1.269       .  A
O245        C252   1.278       .  A
O246        C253   1.280       .  A
O247        C253   1.263       .  A
C248       C1301   1.486       .  S
C249       C1268   1.473       .  S
C250       C1228   1.456       .  S
C251       C1248   1.484       .  S
C252       C1238   1.485       .  S
C253       C1258   1.483   1_554  S
Zn254       O258   1.945       .  S
Zn254       O259   2.015       .  S
Zn254       O263   2.017       .  S
Zn254       O270   2.065       .  S
Zn255       O258   1.953       .  S
Zn255       O260   1.990       .  S
Zn255       O262   1.996       .  S
Zn255       O266   2.031       .  S
Zn256       O258   1.972       .  S
Zn256       O261   2.038       .  S
Zn256       O264   2.082       .  S
Zn256       O267   2.090       .  S
Zn257       O258   1.909       .  S
Zn257       O265   1.916       .  S
Zn257       O268   1.978       .  S
Zn257       O269   1.977       .  S
O259        C271   1.277       .  A
O260        C272   1.270       .  A
O261        C273   1.277       .  A
O262        C271   1.273       .  A
O263        C273   1.274       .  A
O264        C272   1.283       .  A
O265        C274   1.262       .  A
O266        C275   1.275       .  A
O267        C274   1.282       .  A
O268        C275   1.268       .  A
O269        C276   1.268       .  A
O270        C276   1.279       .  A
C271       C1271   1.479       .  S
C272       C1351   1.495       .  S
C273       C1198   1.484       .  S
C274       C1261   1.466       .  S
C275       C1211   1.472       .  S
C276       C1218   1.478       .  S
Zn277       O281   1.976       .  S
Zn277       O282   2.085       .  S
Zn277       O286   2.039       .  S
Zn277      O1989   2.073   1_554  S
Zn278       O281   1.948       .  S
Zn278       O283   1.994       .  S
Zn278       O285   1.996       .  S
Zn278       O289   2.046       .  S
Zn279       O281   1.949       .  S
Zn279       O284   2.010       .  S
Zn279       O287   2.022       .  S
Zn279       O290   2.074       .  S
Zn280       O281   1.912       .  S
Zn280       O288   1.981       .  S
Zn280       O291   1.981       .  S
Zn280      O1988   1.935   1_554  S
O282        C294   1.283       .  A
O283        C295   1.275       .  A
O284        C296   1.273       .  A
O285        C294   1.270       .  A
O286        C296   1.276       .  A
O287        C295   1.277       .  A
O288        C297   1.269       .  A
O289        C298   1.275       .  A
O290        C297   1.280       .  A
O291        C298   1.266       .  A
O292      Zn1976   1.935       .  S
O292        C299   1.266       .  A
O293      Zn1973   2.073       .  S
O293        C299   1.281       .  A
C294       C1188   1.496       .  S
C295       C1178   1.480       .  S
C296       C1138   1.480       .  S
C297       C1158   1.489       .  S
C298       C1148   1.466       .  S
C299       C1168   1.461       .  S
Zn300       O304   1.935       .  S
Zn300       O305   1.987       .  S
Zn300       O309   2.056       .  S
Zn300       O316   2.007       .  S
Zn301       O304   1.969       .  S
Zn301       O306   2.071       .  S
Zn301       O308   2.070       .  S
Zn301       O312   2.027       .  S
Zn302       O304   1.898       .  S
Zn302       O307   1.985       .  S
Zn302       O310   1.928       .  S
Zn302       O313   1.964       .  S
Zn303       O304   1.936       .  S
Zn303       O311   2.052       .  S
Zn303       O314   2.002       .  S
Zn303       O315   2.007       .  S
O305        C317   1.270       .  A
O306        C318   1.280       .  A
O307        C319   1.268       .  A
O308        C317   1.280       .  A
O309        C319   1.277       .  A
O310        C318   1.264       .  A
O311        C320   1.277       .  A
O312        C321   1.275       .  A
O313        C320   1.266       .  A
O314        C321   1.273       .  A
O315        C322   1.274       .  A
O316        C322   1.276       .  A
C317       C1128   1.479       .  S
C318       C1181   1.458       .  S
C319       C1108   1.469       .  S
C320       C1118   1.465       .  S
C321       C1098   1.479       .  S
C322       C1171   1.479       .  S
Zn323       O327   1.960       .  S
Zn323       O328   2.012       .  S
Zn323       O332   2.109       .  S
Zn323       O339   2.063       .  S
Zn324       O327   1.952       .  S
Zn324       O329   2.066       .  S
Zn324       O331   2.053       .  S
Zn324       O335   2.100       .  S
Zn325       O327   1.911       .  S
Zn325       O330   1.976       .  S
Zn325       O333   1.960       .  S
Zn325       O336   1.980       .  S
Zn326       O327   1.903       .  S
Zn326       O334   1.996       .  S
Zn326       O337   1.976       .  S
Zn326       O338   1.941       .  S
O328        C340   1.275       .  A
O329        C341   1.282       .  A
O330        C342   1.269       .  A
O331        C340   1.281       .  A
O332        C342   1.285       .  A
O333        C341   1.267       .  A
O334        C343   1.269       .  A
O335        C344   1.283       .  A
O336        C343   1.267       .  A
O337        C344   1.268       .  A
O338        C345   1.268       .  A
O339        C345   1.282       .  A
C340       C1651   1.489       .  S
C341       C1088   1.480       .  S
C342       C1191   1.498       .  S
C343       C1068   1.457       .  S
C344       C1318   1.484       .  S
C345       C1078   1.468       .  S
Zn346       O350   1.942       .  S
Zn346       O351   2.055       .  S
Zn346       O355   1.996       .  S
Zn346       O362   1.973       .  S
Zn347       O350   1.899       .  S
Zn347       O352   1.954       .  S
Zn347       O354   1.967       .  S
Zn347       O358   1.923       .  S
Zn348       O350   1.945       .  S
Zn348       O353   2.018       .  S
Zn348       O356   2.061       .  S
Zn348       O359   2.023       .  S
Zn349       O350   1.975       .  S
Zn349       O357   2.041       .  S
Zn349       O360   2.083       .  S
Zn349       O361   2.082       .  S
O351        C363   1.275       .  A
O352        C364   1.266       .  A
O353        C365   1.278       .  A
O354        C363   1.264       .  A
O355        C365   1.275       .  A
O356        C364   1.278       .  A
O357        C366   1.276       .  A
O358        C367   1.264       .  A
O359        C366   1.275       .  A
O360        C367   1.283       .  A
O361        C368   1.282       .  A
O362        C368   1.268       .  A
C363       C1611   1.467       .  S
C364       C1291   1.479       .  S
C365       C1081   1.479       .  S
C366       C1058   1.483       .  S
C367       C2787   1.466       .  S
C368       C1131   1.479       .  S
Zn369       O373   1.948       .  S
Zn369       O378   1.996   1_554  S
Zn369       O385   2.075       .  S
Zn369      O2070   2.000   1_554  S
Zn370       O373   1.950       .  S
Zn370       O375   2.009       .  S
Zn370       O381   2.063       .  S
Zn370      O2073   2.017   1_554  S
Zn371       O373   1.978       .  S
Zn371       O376   2.073       .  S
Zn371       O379   2.037       .  S
Zn371       O382   2.071       .  S
Zn372       O373   1.903       .  S
Zn372       O380   1.930       .  S
Zn372       O383   1.960       .  S
Zn372       O384   1.972       .  S
O374      Zn2065   2.000       .  S
O374        C386   1.276       .  A
O375        C387   1.273       .  A
O376        C388   1.281       .  A
O377      Zn2066   2.017       .  S
O377        C386   1.276       .  A
O378        C388   1.271   1_556  A
O379        C387   1.276       .  A
O380        C389   1.265       .  A
O381        C390   1.278       .  A
O382        C389   1.281       .  A
O383        C390   1.267       .  A
O384        C391   1.266       .  A
O385        C391   1.280       .  A
C386       C1028   1.478       .  S
C387       C1141   1.481       .  S
C388       C2744   1.483   1_554  S
C389       C1038   1.459       .  S
C390       C1021   1.479       .  S
C391       C1008   1.487       .  S
Zn392       O396   1.970       .  S
Zn392       O397   2.027       .  S
Zn392       O401   2.074       .  S
Zn392       O408   2.080       .  S
Zn393       O396   1.946       .  S
Zn393       O398   2.075       .  S
Zn393       O400   2.005       .  S
Zn393       O404   2.015       .  S
Zn394       O396   1.902       .  S
Zn394       O399   1.935       .  S
Zn394       O402   1.970       .  S
Zn394       O405   1.970       .  S
Zn395       O396   1.945       .  S
Zn395       O403   2.052       .  S
Zn395       O406   2.002       .  S
Zn395       O407   2.001       .  S
O397        C409   1.275       .  A
O398        C410   1.279       .  A
O399        C411   1.265       .  A
O400        C409   1.273       .  A
O401        C411   1.281       .  A
O402        C410   1.267       .  A
O403        C412   1.277       .  A
O404        C413   1.277       .  A
O405        C412   1.267       .  A
O406        C413   1.277       .  A
O407        C414   1.270       .  A
O408        C414   1.282       .  A
C409       C1101   1.471       .  S
C410        C988   1.486       .  S
C411       C1031   1.459       .  S
C412        C978   1.469       .  S
C413       C1041   1.479       .  S
C414        C998   1.496       .  S
Zn415       O419   1.950       .  S
Zn415       O420   2.070       .  S
Zn415       O424   2.046       .  S
Zn415       O431   2.082       .  S
Zn416       O419   1.905       .  S
Zn416       O421   1.972       .  S
Zn416       O423   1.958       .  S
Zn416       O427   1.978       .  S
Zn417       O419   1.957       .  S
Zn417       O422   2.017       .  S
Zn417       O425   2.112       .  S
Zn417       O428   2.067       .  S
Zn418       O419   1.900       .  S
Zn418       O426   1.939       .  S
Zn418       O429   1.999       .  S
Zn418       O430   1.974       .  S
O420        C432   1.282       .  A
O421        C433   1.268       .  A
O422        C434   1.276       .  A
O423        C432   1.267       .  A
O424        C434   1.278       .  A
O425        C433   1.286       .  A
O426        C435   1.268       .  A
O427        C436   1.267       .  A
O428        C435   1.282       .  A
O429        C436   1.270       .  A
O430        C437   1.267       .  A
O431        C437   1.281       .  A
C432        C958   1.481       .  S
C433       C1001   1.498       .  S
C434       C1561   1.486       .  S
C435        C968   1.473       .  S
C436       C1071   1.456       .  S
C437       C1241   1.474       .  S
Zn438       O442   1.941       .  S
Zn438       O443   2.059       .  S
Zn438       O447   2.003       .  S
Zn438       O454   1.982       .  S
Zn439       O442   1.899       .  S
Zn439       O444   1.961       .  S
Zn439       O446   1.976       .  S
Zn439       O450   1.919       .  S
Zn440       O442   1.940       .  S
Zn440       O445   2.007       .  S
Zn440       O448   2.055       .  S
Zn440       O451   2.020       .  S
Zn441       O442   1.977       .  S
Zn441       O449   2.045       .  S
Zn441       O452   2.087       .  S
Zn441       O453   2.084       .  S
O443        C455   1.277       .  A
O444        C456   1.266       .  A
O445        C457   1.277       .  A
O446        C455   1.267       .  A
O447        C457   1.275       .  A
O448        C456   1.276       .  A
O449        C458   1.277       .  A
O450        C459   1.263       .  A
O451        C458   1.275       .  A
O452        C459   1.283       .  A
O453        C460   1.282       .  A
O454        C460   1.269       .  A
C455       C1528   1.474       .  S
C456       C1208   1.472       .  S
C457       C2667   1.477       .  S
C458       C1061   1.483       .  S
C459        C961   1.468       .  S
C460       C1051   1.481       .  S
Zn461       O465   1.899       .  S
Zn461       O466   1.985       .  S
Zn461       O470   1.926       .  S
Zn461       O477   1.969       .  S
Zn462       O465   1.906       .  S
Zn462       O467   1.975       .  S
Zn462       O469   1.961       .  S
Zn462       O473   1.949       .  S
Zn463       O465   1.957       .  S
Zn463       O468   2.068       .  S
Zn463       O471   2.101       .  S
Zn463       O474   2.017       .  S
Zn464       O465   1.952       .  S
Zn464       O472   2.035       .  S
Zn464       O475   2.078       .  S
Zn464       O476   2.087       .  S
O466        C478   1.268       .  A
O467        C479   1.270       .  A
O468        C480   1.282       .  A
O469        C478   1.265       .  A
O470        C480   1.266       .  A
O471        C479   1.286       .  A
O472        C481   1.278       .  A
O473        C482   1.262       .  A
O474        C481   1.274       .  A
O475        C482   1.280       .  A
O476        C483   1.284       .  A
O477        C483   1.269       .  A
C478       C1551   1.454       .  S
C479        C948   1.493       .  S
C480        C928   1.466   1_554  S
C481        C918   1.485       .  S
C482        C938   1.481       .  S
C483       C1011   1.489       .  S
Zn484       O488   1.946       .  S
Zn484       O489   2.021       .  S
Zn484       O493   2.060       .  S
Zn484       O500   2.016       .  S
Zn485       O488   1.967       .  S
Zn485       O490   2.085       .  S
Zn485       O492   2.042       .  S
Zn485       O496   2.090       .  S
Zn486       O488   1.905       .  S
Zn486       O491   1.968       .  S
Zn486       O494   1.922       .  S
Zn486       O497   1.980       .  S
Zn487       O488   1.949       .  S
Zn487       O495   2.040       .  S
Zn487       O498   1.978       .  S
Zn487       O499   1.992       .  S
O489        C501   1.273       .  A
O490        C502   1.284       .  A
O491        C503   1.268       .  A
O492        C501   1.276       .  A
O493        C503   1.278       .  A
O494        C502   1.264       .  A
O495        C504   1.274       .  A
O496        C505   1.283       .  A
O497        C504   1.266       .  A
O498        C505   1.270       .  A
O499        C506   1.273       .  A
O500        C506   1.277       .  A
C501       C1521   1.479       .  S
C502        C941   1.464       .  S
C503        C981   1.469       .  S
C504        C898   1.474       .  S
C505        C908   1.488       .  S
C506        C931   1.478       .  S
Zn507       O511   1.940       .  S
Zn507       O512   1.995       .  S
Zn507       O516   1.997       .  S
Zn507       O523   2.051       .  S
Zn508       O511   1.965       .  S
Zn508       O513   2.035       .  S
Zn508       O515   2.073       .  S
Zn508       O519   2.072       .  S
Zn509       O511   1.940       .  S
Zn509       O514   2.015       .  S
Zn509       O517   2.001       .  S
Zn509       O520   2.061       .  S
Zn510       O511   1.894       .  S
Zn510       O518   1.975       .  S
Zn510       O521   1.929       .  S
Zn510       O522   1.987       .  S
O512        C524   1.271       .  A
O513        C525   1.276       .  A
O514        C526   1.276       .  A
O515        C524   1.282       .  A
O516        C526   1.276       .  A
O517        C525   1.272       .  A
O518        C527   1.269       .  A
O519        C528   1.281       .  A
O520        C527   1.278       .  A
O521        C528   1.265       .  A
O522        C529   1.269       .  A
O523        C529   1.278       .  A
C524        C951   1.493       .  S
C525       C1641   1.479       .  S
C526        C888   1.479       .  S
C527       C1111   1.481       .  S
C528        C878   1.462       .  S
C529       C1431   1.480       .  S
Zn530       O534   1.945       .  S
Zn530       O535   1.990       .  S
Zn530       O539   1.995       .  S
Zn530       O546   2.049       .  S
Zn531       O534   1.965       .  S
Zn531       O536   2.010       .  S
Zn531       O538   2.076       .  S
Zn531      O2238   2.069       .  S
Zn532       O534   1.957       .  S
Zn532       O537   2.009       .  S
Zn532       O540   2.010       .  S
Zn532       O543   2.062       .  S
Zn533       O534   1.905       .  S
Zn533       O545   1.979       .  S
Zn533      O2237   1.971       .  S
Zn533      O2240   1.927       .  S
O535        C547   1.271       .  A
O536        C548   1.272       .  A
O537        C549   1.276       .  A
O538        C547   1.280       .  A
O539        C549   1.274       .  A
O540        C548   1.272       .  A
O541      Zn2229   1.971       .  S
O541       C2246   1.268       .  A
O542      Zn2227   2.069   1_554  S
O542        C551   1.280       .  A
O543        C550   1.278       .  A
O544      Zn2229   1.927   1_554  S
O544        C551   1.264       .  A
O545        C552   1.266       .  A
O546        C552   1.275       .  A
C547        C911   1.489       .  S
C548       C1601   1.467       .  S
C549        C881   1.471       .  S
C550       O2237   1.268       .  A
C550       C1151   1.479       .  S
C551        C891   1.457       .  S
C552       C1471   1.466       .  S
Zn553       O557   1.889       .  S
Zn553       O558   1.963       .  S
Zn553       O562   1.917       .  S
Zn553       O569   1.972       .  S
Zn554       O557   1.935       .  S
Zn554       O559   2.001       .  S
Zn554       O561   2.066       .  S
Zn554       O565   2.003       .  S
Zn555       O557   1.967       .  S
Zn555       O560   2.095       .  S
Zn555       O563   2.047       .  S
Zn555       O566   2.104       .  S
Zn556       O557   1.941       .  S
Zn556       O564   1.982       .  S
Zn556       O567   1.992       .  S
Zn556       O568   2.038       .  S
O558        C570   1.267       .  A
O559        C571   1.272       .  A
O560        C572   1.285       .  A
O561        C570   1.277       .  A
O562        C572   1.264       .  A
O563        C571   1.277       .  A
O564        C573   1.269       .  A
O565        C574   1.276       .  A
O566        C573   1.286       .  A
O567        C574   1.274       .  A
O568        C575   1.275       .  A
O569        C575   1.267       .  A
C570       C1441   1.475       .  S
C571       C1311   1.478       .  S
C572        C848   1.470       .  S
C573        C868   1.498       .  S
C574        C858   1.474       .  S
C575       C1121   1.479       .  S
Zn576       O580   1.969       .  S
Zn576       O581   2.013       .  S
Zn576       O592   2.088       .  S
Zn576      O2281   2.054       .  S
Zn577       O580   1.947       .  S
Zn577       O582   2.071       .  S
Zn577       O584   2.044       .  S
Zn577       O588   2.061       .  S
Zn578       O580   1.910       .  S
Zn578       O586   1.973       .  S
Zn578       O589   2.000       .  S
Zn578      O2279   1.925       .  S
Zn579       O580   1.910       .  S
Zn579       O587   1.980       .  S
Zn579       O590   1.952       .  S
Zn579       O591   1.957       .  S
O581        C593   1.273       .  A
O582        C594   1.282       .  A
O583      Zn2274   1.925   1_554  S
O583        C595   1.266       .  A
O584        C593   1.278       .  A
O585      Zn2272   2.054   1_554  S
O585        C595   1.280       .  A
O586        C594   1.269       .  A
O587        C596   1.267       .  A
O588        C597   1.279       .  A
O589        C596   1.268       .  A
O590        C597   1.265       .  A
O591        C598   1.268       .  A
O592        C598   1.282       .  A
C593       C1161   1.488       .  S
C594       C1481   1.486       .  S
C595        C861   1.460       .  S
C596       C1281   1.468       .  S
C597        C851   1.459       .  S
C598        C838   1.484       .  S
Zn599       O603   1.953       .  S
Zn599       O604   2.061       .  S
Zn599       O608   2.078       .  S
Zn599       O615   2.020       .  S
Zn600       O603   1.907       .  S
Zn600       O605   1.981       .  S
Zn600       O607   1.952       .  S
Zn600       O611   1.969       .  S
Zn601       O603   1.891       .  S
Zn601       O606   1.959       .  S
Zn601       O609   1.985       .  S
Zn601       O612   1.917       .  S
Zn602       O603   1.965       .  S
Zn602       O610   2.096       .  S
Zn602       O613   2.122       .  S
Zn602       O614   2.014       .  S
O604        C616   1.277       .  A
O605        C617   1.267       .  A
O606        C618   1.267       .  A
O607        C616   1.266       .  A
O608        C618   1.282       .  A
O609        C617   1.268       .  A
O610        C619   1.284       .  A
O611        C620   1.269       .  A
O612        C619   1.265       .  A
O613        C620   1.289       .  A
O614        C621   1.274       .  A
O615        C621   1.277       .  A
C616        C828   1.473       .  S
C617       C1231   1.466       .  S
C618        C808   1.486       .  S
C619        C818   1.477   1_554  S
C620        C871   1.498       .  S
C621       C1018   1.482       .  S
Zn622       O626   1.916       .  S
Zn622       O627   1.975       .  S
Zn622       O631   2.008       .  S
Zn622       O638   1.957       .  S
Zn623       O626   1.964       .  S
Zn623       O628   2.039       .  S
Zn623       O630   2.067       .  S
Zn623       O634   2.003       .  S
Zn624       O626   1.919       .  S
Zn624       O629   2.032       .  S
Zn624       O632   1.961       .  S
Zn624       O635   1.974       .  S
Zn625       O626   1.959       .  S
Zn625       O633   2.069       .  S
Zn625       O636   2.046       .  S
Zn625       O637   2.072       .  S
O627        C639   1.269       .  A
O628        C640   1.278       .  A
O629        C641   1.274       .  A
O630        C639   1.279       .  A
O631        C641   1.270       .  A
O632        C640   1.269       .  A
O633        C642   1.282       .  A
O634        C643   1.271       .  A
O635        C642   1.270       .  A
O636        C643   1.277       .  A
O637        C644   1.280       .  A
O638        C644   1.269       .  A
C639        C841   1.473       .  S
C640        C831   1.457       .  S
C641       C1201   1.486       .  S
C642        C798   1.485       .  S
C643        C991   1.488       .  S
C644        C821   1.471       .  S
Zn645       O649   1.974       .  S
Zn645       O650   2.030       .  S
Zn645       O654   2.074       .  S
Zn645       O661   2.078       .  S
Zn646       O649   1.947       .  S
Zn646       O651   2.079       .  S
Zn646       O653   2.002       .  S
Zn646      O2353   2.024   1_554  S
Zn647       O649   1.899       .  S
Zn647       O652   1.933       .  S
Zn647       O655   1.961       .  S
Zn647       O658   1.968       .  S
Zn648       O649   1.943       .  S
Zn648       O656   2.065       .  S
Zn648       O660   2.006   1_554  S
Zn648      O2355   2.000   1_554  S
O650        C662   1.275       .  A
O651        C663   1.280       .  A
O652        C664   1.265       .  A
O653        C662   1.273       .  A
O654        C664   1.281       .  A
O655        C663   1.267       .  A
O656        C665   1.280       .  A
O657      Zn2342   2.024       .  S
O657        C666   1.277       .  A
O658        C665   1.266       .  A
O659      Zn2344   2.000       .  S
O659        C666   1.276       .  A
O660        C667   1.272   1_556  A
O661        C667   1.281       .  A
C662       C1461   1.475       .  S
C663        C921   1.486       .  S
C664        C778   1.461       .  S
C665        C811   1.483       .  S
C666        C768   1.483       .  S
C667       C2487   1.486   1_554  S
Zn668       O672   1.977       .  S
Zn668       O673   2.031       .  S
Zn668       O677   2.079       .  S
Zn668       O684   2.080       .  S
Zn669       O672   1.943       .  S
Zn669       O674   2.064       .  S
Zn669       O676   1.999       .  S
Zn669       O680   2.017       .  S
Zn670       O672   1.902       .  S
Zn670       O675   1.928       .  S
Zn670       O678   1.966       .  S
Zn670       O681   1.976       .  S
Zn671       O672   1.941       .  S
Zn671       O679   2.058       .  S
Zn671       O682   2.002       .  S
Zn671       O683   2.002       .  S
O673        C685   1.276       .  A
O674        C686   1.278       .  A
O675        C687   1.263       .  A
O676        C685   1.273       .  A
O677        C687   1.281       .  A
O678        C686   1.267       .  A
O679        C688   1.279       .  A
O680        C689   1.275       .  A
O681        C688   1.268       .  A
O682        C689   1.275       .  A
O683        C690   1.272       .  A
O684        C690   1.282       .  A
C685       C1421   1.475       .  S
C686        C901   1.479       .  S
C687        C771   1.462       .  S
C688        C801   1.483       .  S
C689        C781   1.480       .  S
C690        C758   1.485       .  S
Zn691       O695   1.895       .  S
Zn691       O696   1.954       .  S
Zn691       O700   1.966       .  S
Zn691       O707   1.934       .  S
Zn692       O695   1.947       .  S
Zn692       O697   2.020       .  S
Zn692       O699   2.079       .  S
Zn692       O703   2.000       .  S
Zn693       O695   1.943       .  S
Zn693       O698   2.065       .  S
Zn693       O701   2.005       .  S
Zn693       O704   2.006       .  S
Zn694       O695   1.970       .  S
Zn694       O702   2.074       .  S
Zn694       O705   2.024       .  S
Zn694       O706   2.072       .  S
O696        C708   1.266       .  A
O697        C709   1.276       .  A
O698        C710   1.280       .  A
O699        C708   1.280       .  A
O700        C710   1.267       .  A
O701        C709   1.277       .  A
O702        C711   1.280       .  A
O703        C712   1.273       .  A
O704        C711   1.272       .  A
O705        C712   1.275       .  A
O706        C713   1.280       .  A
O707        C713   1.264       .  A
C708       C1571   1.486       .  S
C709        C738   1.483       .  S
C710       C1251   1.481       .  S
C711        C761   1.486       .  S
C712       C1381   1.474       .  S
C713        C748   1.460       .  S
Zn714       O718   1.947       .  S
Zn714       O719   2.061       .  S
Zn714       O723   2.002       .  S
Zn714       O730   2.001       .  S
Zn715       O718   1.905       .  S
Zn715       O720   1.978       .  S
Zn715       O722   1.977       .  S
Zn715       O726   1.925       .  S
Zn716       O718   1.944       .  S
Zn716       O721   2.014       .  S
Zn716       O724   2.061       .  S
Zn716       O727   2.000       .  S
Zn717       O718   1.980       .  S
Zn717       O725   2.035       .  S
Zn717       O728   2.083       .  S
Zn717       O729   2.082       .  S
O719        C731   1.279       .  A
O720        C732   1.268       .  A
O721        C733   1.275       .  A
O722        C731   1.268       .  A
O723        C733   1.275       .  A
O724        C732   1.278       .  A
O725        C734   1.276       .  A
O726        C735   1.263       .  A
O727        C734   1.273       .  A
O728        C735   1.281       .  A
O729        C736   1.282       .  A
O730        C736   1.272       .  A
C731       C1221   1.480       .  S
C732       C1541   1.479       .  S
C733       C2447   1.480       .  S
C734       C1361   1.477       .  S
C735        C741   1.463       .  S
C736        C788   1.486       .  S
C737        C738   1.406       .  A
C737        C742   1.397       .  A
C737        H743   1.083       .  S
C738        C739   1.408       .  A
C739        C740   1.401       .  A
C739        H744   1.083       .  S
C740        C741   1.402       .  A
C740        H745   1.083       .  S
C741        C742   1.403       .  A
C742        H746   1.084       .  S
C747        C748   1.400       .  A
C747        C752   1.397       .  A
C747        H753   1.084       .  S
C748        C749   1.403       .  A
C749        C750   1.398       .  A
C749        H754   1.084       .  S
C750        C751   1.405       .  A
C750        H755   1.083       .  S
C751       C2429   1.480   1_554  S
C751        C752   1.408       .  A
C752       H2452   1.083       .  S
H756       C2448   1.083       .  S
C757        C758   1.411       .  A
C757        C762   1.404       .  A
C757        H763   1.084       .  S
C758        C759   1.401       .  A
C759        C760   1.405       .  A
C759        H764   1.083       .  S
C760        C761   1.411       .  A
C760        H765   1.084       .  S
C761        C762   1.401       .  A
C762        H766   1.083       .  S
C767        C768   1.408       .  A
C767        C772   1.401       .  A
C767        H773   1.083       .  S
C768        C769   1.406       .  A
C769        C770   1.396       .  A
C769        H774   1.083       .  S
C770        C771   1.403       .  A
C770        H775   1.084       .  S
C771        C772   1.402       .  A
C772        H776   1.083       .  S
C777        C778   1.402       .  A
C777        C782   1.395       .  A
C777        H783   1.084       .  S
C778        C779   1.401       .  A
C779        C780   1.400       .  A
C779        H784   1.083       .  S
C780        C781   1.409       .  A
C780        H785   1.083       .  S
C781        C782   1.405       .  A
C782        H786   1.083       .  S
C787        C788   1.411       .  A
C787       C2488   1.404       .  A
C787        H793   1.084       .  S
C788        C789   1.401       .  A
C789        C790   1.405       .  A
C789        H794   1.083       .  S
C790        C791   1.412       .  A
C790        H795   1.084       .  S
C791       C2363   1.486       .  S
C791       C2488   1.401       .  A
C792       C2483   1.404       .  A
C792       C2487   1.401       .  A
C792        H796   1.083   1_556  S
C797        C798   1.402       .  A
C797        C802   1.399   1_565  A
C797        H803   1.083       .  S
C798        C799   1.412       .  A
C799        C800   1.398       .  A
C799        H804   1.083       .  S
C800        C801   1.401   1_565  A
C800        H805   1.083   1_565  S
C801        C802   1.411       .  A
C802        H806   1.083       .  S
C807        C808   1.401       .  A
C807        C812   1.400   1_565  A
C807        H813   1.083       .  S
C808        C809   1.413       .  A
C809        C810   1.398       .  A
C809        H814   1.083       .  S
C810        C811   1.399   1_565  A
C810        H815   1.083   1_565  S
C811        C812   1.412       .  A
C812        H816   1.083       .  S
C817        C822   1.410       .  A
C817       C2514   1.406       .  A
C817        H823   1.083       .  S
C818       C2513   1.406       .  A
C818       C2515   1.406       .  A
C819        C820   1.387       .  A
C819       C2514   1.406       .  A
C819       H2520   1.084       .  S
C820        C821   1.399       .  A
C820        H825   1.084       .  S
C821        C822   1.409       .  A
C822        H826   1.083       .  S
H824       C2515   1.084       .  S
C827        C828   1.400       .  A
C827        C832   1.400       .  A
C827        H833   1.083       .  S
C828        C829   1.410       .  A
C829        C830   1.392       .  A
C829        H834   1.083       .  S
C830        C831   1.394       .  A
C830        H835   1.083       .  S
C831        C832   1.407       .  A
C832        H836   1.084       .  S
C837        C838   1.406       .  A
C837        C842   1.409       .  A
C837        H843   1.083       .  S
C838        C839   1.408       .  A
C839        C840   1.392       .  A
C839        H844   1.083       .  S
C840        C841   1.399       .  A
C840        H845   1.084       .  S
C841        C842   1.407       .  A
C842        H846   1.083       .  S
C847        C848   1.410       .  A
C847        C852   1.391       .  A
C847        H853   1.084       .  S
C848        C849   1.400       .  A
C849        C850   1.403       .  A
C849        H854   1.083       .  S
C850        C851   1.408       .  A
C850        H855   1.084       .  S
C851        C852   1.394       .  A
C852        H856   1.084       .  S
C857        C858   1.404       .  A
C857        C862   1.389       .  A
C857        H863   1.083       .  S
C858        C859   1.408       .  A
C859        C860   1.400       .  A
C859        H864   1.083       .  S
C860        C861   1.402       .  A
C860        H865   1.083       .  S
C861        C862   1.402       .  A
C862        H866   1.084       .  S
C867        C868   1.401       .  A
C867        C872   1.403       .  A
C867        H873   1.083       .  S
C868        C869   1.417       .  A
C869        C870   1.406       .  A
C869        H874   1.083       .  S
C870        C871   1.402       .  A
C870        H875   1.083       .  S
C871        C872   1.416       .  A
C872        H876   1.083       .  S
C877        C878   1.407       .  A
C877        C882   1.393       .  A
C877        H883   1.084       .  S
C878        C879   1.398       .  A
C879        C880   1.398       .  A
C879        H884   1.083       .  S
C880        C881   1.410       .  A
C880        H885   1.083       .  S
C881        C882   1.400       .  A
C882        H886   1.083       .  S
C887        C888   1.407       .  A
C887        C892   1.396       .  A
C887        H893   1.083       .  S
C888        C889   1.406       .  A
C889        C890   1.398       .  A
C889        H894   1.083       .  S
C890        C891   1.403       .  A
C890        H895   1.084       .  S
C891        C892   1.400       .  A
C892        H896   1.084       .  S
C897        C898   1.409       .  A
C897        C902   1.401       .  A
C897        H903   1.083       .  S
C898        C899   1.398       .  A
C899        C900   1.396       .  A
C899        H904   1.083       .  S
C900        C901   1.410       .  A
C900        H905   1.083       .  S
C901        C902   1.401       .  A
C902        H906   1.083       .  S
C907        C908   1.408       .  A
C907        C912   1.411       .  A
C907        H913   1.083       .  S
C908        C909   1.406       .  A
C909        C910   1.396       .  A
C909        H914   1.083       .  S
C910        C911   1.405       .  A
C910        H915   1.083       .  S
C911        C912   1.409       .  A
C912        H916   1.083       .  S
C917        C918   1.411       .  A
C917        C922   1.405       .  A
C917        H923   1.083       .  S
C918        C919   1.401       .  A
C919        C920   1.394       .  A
C919        H924   1.083       .  S
C920        C921   1.410       .  A
C920        H925   1.083       .  S
C921        C922   1.404       .  A
C922        H926   1.083       .  S
C927        C932   1.391       .  A
C927       C2624   1.404       .  A
C927        H933   1.084       .  S
C928       C2623   1.404       .  A
C928       C2625   1.401       .  A
C929        C930   1.401       .  A
C929       C2624   1.401       .  A
C929        H934   1.083       .  S
C930        C931   1.410       .  A
C930        H935   1.083       .  S
C931        C932   1.403       .  A
C932        H936   1.083       .  S
C937        C938   1.414       .  A
C937        C942   1.397       .  A
C937        H943   1.083       .  S
C938        C939   1.400       .  A
C939        C940   1.398       .  A
C939        H944   1.083       .  S
C940        C941   1.409       .  A
C940        H945   1.084       .  S
C941        C942   1.396       .  A
C942        H946   1.083       .  S
C947        C948   1.402       .  A
C947        C952   1.404       .  A
C947        H953   1.083       .  S
C948        C949   1.413       .  A
C949        C950   1.401       .  A
C949        H954   1.083       .  S
C950        C951   1.402       .  A
C950        H955   1.083       .  S
C951        C952   1.414       .  A
C952        H956   1.083       .  S
C957        C958   1.400       .  A
C957        C962   1.397       .  A
C957        H963   1.083       .  S
C958        C959   1.413       .  A
C959        C960   1.398       .  A
C959        H964   1.083       .  S
C960        C961   1.398       .  A
C960        H965   1.083       .  S
C961        C962   1.409       .  A
C962        H966   1.084       .  S
C967        C968   1.402       .  A
C967        C972   1.401       .  A
C967        H973   1.083       .  S
C968        C969   1.406       .  A
C969        C970   1.390       .  A
C969        H974   1.084       .  S
C970        C971   1.402       .  A
C970        H975   1.083       .  S
C971       C2153   1.477   1_554  S
C971        C972   1.410       .  A
C972       H2672   1.083       .  S
H976       C2668   1.083       .  S
C977        C978   1.402       .  A
C977        C982   1.393   1_565  A
C977        H983   1.084       .  S
C978        C979   1.404       .  A
C979        C980   1.403   1_565  A
C979        H984   1.083       .  S
C980        C981   1.405       .  A
C980        H985   1.083       .  S
C981        C982   1.402       .  A
C982        H986   1.084       .  S
C987        C988   1.403       .  A
C987        C992   1.403       .  A
C987        H993   1.083       .  S
C988        C989   1.410       .  A
C989        C990   1.398       .  A
C989        H994   1.083       .  S
C990        C991   1.402       .  A
C990        H995   1.083       .  S
C991        C992   1.412       .  A
C992        H996   1.083       .  S
C997        C998   1.401       .  A
C997       C1002   1.401       .  A
C997       H1003   1.083       .  S
C998        C999   1.415       .  A
C999       C1000   1.407       .  A
C999       H1004   1.083       .  S
C1000      C1001   1.403       .  A
C1000      H1005   1.083       .  S
C1001      C1002   1.415       .  A
C1002      H1006   1.083       .  S
C1007      C1008   1.400       .  A
C1007      C1012   1.400   1_565  A
C1007      H1013   1.083       .  S
C1008      C1009   1.413       .  A
C1009      C1010   1.401   1_565  A
C1009      H1014   1.083       .  S
C1010      C1011   1.402       .  A
C1010      H1015   1.083       .  S
C1011      C1012   1.414       .  A
C1012      H1016   1.083       .  S
C1017      C1018   1.410       .  A
C1017      C1022   1.403       .  A
C1017      H1023   1.083       .  S
C1018      C1019   1.402       .  A
C1019      C1020   1.393       .  A
C1019      H1024   1.083       .  S
C1020      C1021   1.407       .  A
C1020      H1025   1.083       .  S
C1021      C1022   1.403       .  A
C1022      H1026   1.083       .  S
C1027      C1028   1.404       .  A
C1027      C1032   1.398       .  A
C1027      H1033   1.083       .  S
C1028      C1029   1.408       .  A
C1029      C1030   1.397       .  A
C1029      H1034   1.083       .  S
C1030      C1031   1.399       .  A
C1030      H1035   1.083       .  S
C1031      C1032   1.404       .  A
C1032      H1036   1.084       .  S
C1037      C1038   1.400       .  A
C1037      C1042   1.400       .  A
C1037      H1043   1.083       .  S
C1038      C1039   1.403       .  A
C1039      C1040   1.394       .  A
C1039      H1044   1.084       .  S
C1040      C1041   1.405       .  A
C1040      H1045   1.083       .  S
C1041      C1042   1.409       .  A
C1042      H1046   1.083       .  S
C1047      C1048   1.412       .  A
C1047      C1052   1.403       .  A
C1047      H1053   1.083       .  S
C1048      C2084   1.483       .  S
C1048      C2745   1.400       .  A
C1049      C2744   1.400       .  A
C1049      C2746   1.403       .  A
C1049      H1054   1.083   1_556  S
C1050      C1051   1.411       .  A
C1050      C2745   1.403       .  A
C1050      H1055   1.084       .  S
C1051      C1052   1.399       .  A
C1052      H1056   1.083       .  S
C1057      C1058   1.405       .  A
C1057      C1062   1.400       .  A
C1057      H1063   1.083       .  S
C1058      C1059   1.406       .  A
C1059      C1060   1.403       .  A
C1059      H1064   1.083       .  S
C1060      C1061   1.405       .  A
C1060      H1065   1.083       .  S
C1061      C1062   1.406       .  A
C1062      H1066   1.083       .  S
C1067      C1068   1.401       .  A
C1067      C1072   1.393       .  A
C1067      H1073   1.083       .  S
C1068      C1069   1.401       .  A
C1069      C1070   1.392       .  A
C1069      H1074   1.083       .  S
C1070      C1071   1.400       .  A
C1070      H1075   1.083       .  S
C1071      C1072   1.402       .  A
C1072      H1076   1.083       .  S
C1077      C1078   1.402       .  A
C1077      C1082   1.401       .  A
C1077      H1083   1.083       .  S
C1078      C1079   1.404       .  A
C1079      C1080   1.392       .  A
C1079      H1084   1.084       .  S
C1080      C1081   1.404       .  A
C1080      H1085   1.083       .  S
C1081      C1082   1.409       .  A
C1082      H1086   1.083       .  S
C1087      C1088   1.401       .  A
C1087      C1092   1.396       .  A
C1087      H1093   1.083       .  S
C1088      C1089   1.413       .  A
C1089      C1090   1.398       .  A
C1089      H1094   1.083       .  S
C1090      C1091   1.398       .  A
C1090      H1095   1.083       .  S
C1091      C2063   1.466   1_554  S
C1091      C1092   1.408       .  A
C1092      H1096   1.084       .  S
C1097      C1098   1.406       .  A
C1097      C1102   1.400       .  A
C1097      H1103   1.083       .  S
C1098      C1099   1.406       .  A
C1099      C1100   1.395       .  A
C1099      H1104   1.083       .  S
C1100      C1101   1.402       .  A
C1100      H1105   1.083       .  S
C1101      C1102   1.403       .  A
C1102      H1106   1.083       .  S
C1107      C1108   1.399       .  A
C1107      C1112   1.396       .  A
C1107      H1113   1.084       .  S
C1108      C1109   1.404       .  A
C1109      C1110   1.404       .  A
C1109      H1114   1.083       .  S
C1110      C1111   1.406       .  A
C1110      H1115   1.083       .  S
C1111      C1112   1.407       .  A
C1112      H1116   1.083       .  S
C1117      C1118   1.405       .  A
C1117      C1122   1.396       .  A
C1117      H1123   1.084       .  S
C1118      C1119   1.397       .  A
C1119      C1120   1.398       .  A
C1119      H1124   1.083       .  S
C1120      C1121   1.411       .  A
C1120      H1125   1.083       .  S
C1121      C1122   1.402       .  A
C1122      H1126   1.083       .  S
C1127      C1128   1.412       .  A
C1127      C1132   1.402       .  A
C1127      H1133   1.084       .  S
C1128      C1129   1.399       .  A
C1129      C1130   1.401       .  A
C1129      H1134   1.083       .  S
C1130      C1131   1.412       .  A
C1130      H1135   1.084       .  S
C1131      C1132   1.399       .  A
C1132      H1136   1.083       .  S
C1137      C1138   1.406       .  A
C1137      C1142   1.402       .  A
C1137      H1143   1.083       .  S
C1138      C1139   1.405       .  A
C1139      C1140   1.397       .  A
C1139      H1144   1.083       .  S
C1140      C1141   1.405       .  A
C1140      H1145   1.083       .  S
C1141      C1142   1.406       .  A
C1142      H1146   1.083       .  S
C1147      C1148   1.398       .  A
C1147      C1152   1.395       .  A
C1147      H1153   1.084       .  S
C1148      C2845   1.404       .  A
C1149      C1150   1.403       .  A
C1149      C2844   1.404       .  A
C1149      H1154   1.083       .  S
C1150      C1151   1.405       .  A
C1150      H1155   1.083       .  S
C1151      C2848   1.408       .  A
C1152      C2847   1.408   1_554  A
C1152      H1156   1.083       .  S
C1157      C1158   1.404       .  A
C1157      C1162   1.404       .  A
C1157      H1163   1.083       .  S
C1158      C2855   1.410   1_554  A
C1159      C1160   1.398       .  A
C1159      C2854   1.410       .  A
C1159      H1164   1.083       .  S
C1160      C1161   1.402       .  A
C1160      H1165   1.083       .  S
C1161      C2858   1.411       .  A
C1162      C2857   1.411   1_554  A
C1162      H1166   1.083       .  S
C1167      C1168   1.403       .  A
C1167      C1172   1.394       .  A
C1167      H1173   1.084       .  S
C1168      C1169   1.400       .  A
C1169      C1170   1.399       .  A
C1169      H1174   1.083       .  S
C1170      C1171   1.409       .  A
C1170      H1175   1.083       .  S
C1171      C1172   1.404       .  A
C1172      H1176   1.083       .  S
C1177      C1178   1.407       .  A
C1177      C1182   1.395       .  A
C1177      H1183   1.083       .  S
C1178      C1179   1.407       .  A
C1179      C1180   1.399       .  A
C1179      H1184   1.083       .  S
C1180      C1181   1.402       .  A
C1180      H1185   1.084       .  S
C1181      C1182   1.401       .  A
C1182      H1186   1.084       .  S
C1187      C1188   1.415       .  A
C1187      C1192   1.406       .  A
C1187      H1193   1.083       .  S
C1188      C1189   1.402       .  A
C1189      C1190   1.402       .  A
C1189      H1194   1.083       .  S
C1190      C1191   1.415       .  A
C1190      H1195   1.083       .  S
C1191      C1192   1.403       .  A
C1192      H1196   1.083       .  S
C1197      C1198   1.405       .  A
C1197      C1202   1.400       .  A
C1197      H1203   1.083       .  S
C1198      C1199   1.407       .  A
C1199      C1200   1.400       .  A
C1199      H1204   1.083       .  S
C1200      C1201   1.405       .  A
C1200      H1205   1.083       .  S
C1201      C1202   1.408       .  A
C1202      H1206   1.083       .  S
C1207      C1208   1.400       .  A
C1207      C1212   1.398   1_655  A
C1207      H1213   1.083       .  S
C1208      C1209   1.408       .  A
C1209      C1210   1.395       .  A
C1209      H1214   1.083       .  S
C1210      C1211   1.399   1_655  A
C1210      H1215   1.083   1_655  S
C1211      C1212   1.409       .  A
C1212      H1216   1.083       .  S
C1217      C1218   1.399       .  A
C1217      C1222   1.399   1_565  A
C1217      H1223   1.083       .  S
C1218      C1219   1.410       .  A
C1219      C1220   1.399       .  A
C1219      H1224   1.083       .  S
C1220      C1221   1.400   1_565  A
C1220      H1225   1.083       .  S
C1221      C1222   1.411       .  A
C1222      H1226   1.083       .  S
C1227      C1228   1.401       .  A
C1227      C1232   1.390       .  A
C1227      H1233   1.084       .  S
C1228      C1229   1.399       .  A
C1229      C1230   1.393       .  A
C1229      H1234   1.083       .  S
C1230      C1231   1.405       .  A
C1230      H1235   1.083       .  S
C1231      C1232   1.403       .  A
C1232      H1236   1.083       .  S
C1237      C1238   1.403       .  A
C1237      C1242   1.400   1_455  A
C1237      H1243   1.083       .  S
C1238      C1239   1.411       .  A
C1239      C1240   1.403   1_455  A
C1239      H1244   1.083       .  S
C1240      C1241   1.401       .  A
C1240      H1245   1.083       .  S
C1241      C1242   1.406       .  A
C1242      H1246   1.083       .  S
C1247      C1248   1.413       .  A
C1247      C1252   1.397       .  A
C1247      H1253   1.083       .  S
C1248      C1249   1.401       .  A
C1249      C1250   1.400   1_565  A
C1249      H1254   1.083       .  S
C1250      C1251   1.412       .  A
C1250      H1255   1.083       .  S
C1251      C1252   1.399   1_545  A
C1252      H1256   1.083   1_565  S
C1257      C1262   1.399       .  A
C1257      C2954   1.401       .  A
C1257      H1263   1.083       .  S
C1258      C2953   1.401       .  A
C1258      C2955   1.413       .  A
C1259      C1260   1.398       .  A
C1259      C2954   1.413       .  A
C1259      H1264   1.083       .  S
C1260      C1261   1.398       .  A
C1260      H1265   1.084       .  S
C1261      C1262   1.409       .  A
C1262      H1266   1.084       .  S
C1267      C1268   1.407       .  A
C1267      C1272   1.390       .  A
C1267      H1273   1.084       .  S
C1268      C1269   1.402       .  A
C1269      C1270   1.403       .  A
C1269      H1274   1.083       .  S
C1270      C1271   1.411       .  A
C1270      H1275   1.083       .  S
C1271      C1272   1.401       .  A
C1272      H1276   1.083       .  S
C1277      C1278   1.402       .  A
C1277      C1282   1.390       .  A
C1277      H1283   1.083       .  S
C1278      C1279   1.403       .  A
C1279      C1280   1.397       .  A
C1279      H2980   1.083       .  S
C1280      C1281   1.405       .  A
C1280      H2981   1.083       .  S
C1281      C1282   1.403       .  A
C1282      H1286   1.083       .  S
H1284      C2975   1.083       .  S
H1285      C2976   1.083       .  S
C1287      C1288   1.401       .  A
C1287      C1292   1.393   1_455  A
C1287      H1293   1.083       .  S
C1288      C1289   1.410       .  A
C1289      C1290   1.400   1_455  A
C1289      H1294   1.083       .  S
C1290      C1291   1.402       .  A
C1290      H1295   1.083       .  S
C1291      C1292   1.409       .  A
C1292      H1296   1.083       .  S
C1297      C1298   1.402       .  A
C1297      C1302   1.394       .  A
C1297      H1303   1.084       .  S
C1298      C1924   1.483   1_554  S
C1298      C1299   1.410       .  A
C1299      C1300   1.413       .  A
C1299      H1304   1.083       .  S
C1300      C1301   1.407       .  A
C1300      H1305   1.083       .  S
C1301      C1302   1.406       .  A
C1302      H1306   1.084       .  S
C1307      C1308   1.409       .  A
C1307      C1312   1.401       .  A
C1307      H1313   1.083       .  S
C1308      C1309   1.405       .  A
C1309      C1310   1.397       .  A
C1309      H1314   1.083       .  S
C1310      C1311   1.405       .  A
C1310      H1315   1.083       .  S
C1311      C1312   1.403       .  A
C1312      H1316   1.083       .  S
C1317      C1318   1.404       .  A
C1317      C1322   1.408   1_655  A
C1317      H1323   1.083       .  S
C1318      C1319   1.409       .  A
C1319      C1320   1.400   1_655  A
C1319      H1324   1.083       .  S
C1320      C1321   1.400       .  A
C1320      H1325   1.083       .  S
C1321      C1322   1.409       .  A
C1322      H1326   1.083       .  S
C1327      C1328   1.396       .  A
C1327      C1332   1.383       .  A
C1327      H1333   1.084       .  S
C1328      C1329   1.407       .  A
C1329      C1330   1.406       .  A
C1329      H1334   1.083       .  S
C1330      C1331   1.405       .  A
C1330      H1335   1.083       .  S
C1331      C1332   1.408       .  A
C1332      H1336   1.084       .  S
C1337      C1338   1.414       .  A
C1337      C1342   1.391       .  A
C1337      H1343   1.083       .  S
C1338      C1339   1.398       .  A
C1339      C1340   1.397       .  A
C1339      H1344   1.083       .  S
C1340      C1341   1.408       .  A
C1340      H1345   1.084       .  S
C1341      C1342   1.392       .  A
C1342      H1346   1.084       .  S
C1347      C1348   1.414       .  A
C1347      C1352   1.400       .  A
C1347      H1353   1.083       .  S
C1348      C1349   1.402       .  A
C1349      C1350   1.406       .  A
C1349      H1354   1.083       .  S
C1350      C1351   1.415       .  A
C1350      H1355   1.083       .  S
C1351      C1352   1.401       .  A
C1352      H1356   1.083       .  S
C1357      C1358   1.405       .  A
C1357      C1362   1.400       .  A
C1357      H1363   1.083       .  S
C1358      C1359   1.404       .  A
C1359      C1360   1.395       .  A
C1359      H1364   1.083       .  S
C1360      C1361   1.405       .  A
C1360      H1365   1.083       .  S
C1361      C1362   1.405       .  A
C1362      H1366   1.083       .  S
C1367      C1368   1.413       .  A
C1367      C1372   1.399       .  A
C1367      H1373   1.083       .  S
C1368      C1369   1.401       .  A
C1369      C1370   1.400       .  A
C1369      H1374   1.083       .  S
C1370      C1371   1.412       .  A
C1370      H1375   1.083       .  S
C1371      C1372   1.400       .  A
C1372      H1376   1.083       .  S
C1377      C1378   1.404       .  A
C1377      C1382   1.395       .  A
C1377      H1383   1.083       .  S
C1378      C1379   1.404       .  A
C1379      C1380   1.398       .  A
C1379      H1384   1.083       .  S
C1380      C1381   1.405       .  A
C1380      H1385   1.083       .  S
C1381      C1382   1.404       .  A
C1382      H1386   1.083       .  S
C1387      C1388   1.412       .  A
C1387      C1392   1.398       .  A
C1387      H1393   1.083       .  S
C1388      C1389   1.401       .  A
C1389      C1390   1.398       .  A
C1389      H1394   1.083       .  S
C1390      C1391   1.411       .  A
C1390      H1395   1.083       .  S
C1391      C1392   1.401       .  A
C1392      H1396   1.083       .  S
C1397      C1398   1.401       .  A
C1397      C1402   1.397       .  A
C1397      H1403   1.084       .  S
C1398      C1399   1.403       .  A
C1399      C1400   1.399       .  A
C1399      H1404   1.084       .  S
C1400      C1401   1.406       .  A
C1400      H1405   1.083       .  S
C1401      C1402   1.407       .  A
C1402      H1406   1.083       .  S
C1407      C1408   1.404       .  A
C1407      C1412   1.397       .  A
C1407      H3109   1.084       .  S
C1408      C1880   1.460   1_554  S
C1408      C1409   1.400       .  A
C1409      C1410   1.398       .  A
C1409      H1414   1.083       .  S
C1410      C1411   1.408       .  A
C1410      H1415   1.083       .  S
C1411      C1412   1.404       .  A
C1412      H1416   1.083       .  S
H1413      C3103   1.084       .  S
C1417      C1418   1.404       .  A
C1417      C1422   1.395       .  A
C1417      H1423   1.083       .  S
C1418      C1419   1.405       .  A
C1419      C1420   1.399       .  A
C1419      H1424   1.083       .  S
C1420      C1421   1.404       .  A
C1420      H1425   1.083       .  S
C1421      C1422   1.405       .  A
C1422      H1426   1.083       .  S
C1427      C1428   1.410       .  A
C1427      C1432   1.397       .  A
C1427      H1433   1.083       .  S
C1428      C1429   1.401       .  A
C1429      C1430   1.402       .  A
C1429      H1434   1.083       .  S
C1430      C1431   1.411       .  A
C1430      H1435   1.083       .  S
C1431      C1432   1.400       .  A
C1432      H1436   1.083       .  S
C1437      C1438   1.402       .  A
C1437      C1442   1.393       .  A
C1437      H1443   1.084       .  S
C1438      C1439   1.405       .  A
C1439      C1440   1.405       .  A
C1439      H1444   1.083       .  S
C1440      C1441   1.407       .  A
C1440      H1445   1.083       .  S
C1441      C1442   1.404       .  A
C1442      H1446   1.083       .  S
C1447      C1448   1.400       .  A
C1447      C1452   1.403       .  A
C1447      H1453   1.083       .  S
C1448      C1449   1.411       .  A
C1449      C1450   1.403       .  A
C1449      H1454   1.084       .  S
C1450      C1451   1.400       .  A
C1450      H1455   1.083       .  S
C1451      C1452   1.411       .  A
C1452      H1456   1.083       .  S
C1457      C1458   1.405       .  A
C1457      C1462   1.395       .  A
C1457      H1463   1.083       .  S
C1458      C1459   1.405       .  A
C1459      C1460   1.400       .  A
C1459      H3160   1.083       .  S
C1460      C1461   1.405       .  A
C1460      H3161   1.083       .  S
C1461      C1462   1.403       .  A
C1462      H1466   1.083       .  S
H1464      C3155   1.083       .  S
H1465      C3156   1.083       .  S
C1467      C1472   1.395       .  A
C1467      C3164   1.410       .  A
C1467      H1473   1.083       .  S
C1468      C1469   1.405       .  A
C1468      C3163   1.410   1_554  A
C1469      C1470   1.403       .  A
C1469      H1474   1.083       .  S
C1470      C3167   1.405   1_554  A
C1470      H1475   1.083       .  S
C1471      C1472   1.397       .  A
C1471      C3166   1.405       .  A
C1472      H1476   1.084       .  S
C1477      C1478   1.401       .  A
C1477      C3178   1.399       .  A
C1477      H1483   1.083       .  S
C1478      C1479   1.412   1_554  A
C1479      C1480   1.399       .  A
C1479      H1484   1.083       .  S
C1480      C3177   1.401       .  A
C1480      H1485   1.083       .  S
C1481      C1482   1.412       .  A
C1481      C3176   1.401       .  A
C1482      C3173   1.399       .  A
C1482      H1486   1.083       .  S
C1487      C1488   1.401       .  A
C1487      C1492   1.398       .  A
C1487      H1493   1.083       .  S
C1488      C1489   1.403       .  A
C1489      C1490   1.398       .  A
C1489      H1494   1.084       .  S
C1490      C1491   1.406       .  A
C1490      H1495   1.083       .  S
C1491      C1492   1.407       .  A
C1492      H1496   1.083       .  S
C1497      C1498   1.408       .  A
C1497      C1502   1.397       .  A
C1497      H1503   1.083       .  S
C1498      C1499   1.405       .  A
C1499      C1500   1.398       .  A
C1499      H1504   1.083       .  S
C1500      C1501   1.404       .  A
C1500      H1505   1.084       .  S
C1501      C1502   1.400       .  A
C1502      H1506   1.084       .  S
C1507      C1508   1.402       .  A
C1507      C1512   1.405       .  A
C1507      H1513   1.083       .  S
C1508      C1509   1.413       .  A
C1509      C1510   1.404       .  A
C1509      H1514   1.082       .  S
C1510      C1511   1.399       .  A
C1510      H1515   1.083       .  S
C1511      C1512   1.410       .  A
C1512      H1516   1.083       .  S
C1517      C1518   1.403       .  A
C1517      C1522   1.401       .  A
C1517      H1523   1.083       .  S
C1518      C1519   1.405       .  A
C1519      C1520   1.402       .  A
C1519      H1524   1.083       .  S
C1520      C1521   1.404       .  A
C1520      H1525   1.083       .  S
C1521      C1522   1.406       .  A
C1522      H1526   1.083       .  S
C1527      C1528   1.403       .  A
C1527      C1532   1.394   1_565  A
C1527      H1533   1.084       .  S
C1528      C1529   1.405       .  A
C1529      C1530   1.405   1_565  A
C1529      H1534   1.083       .  S
C1530      C1531   1.406       .  A
C1530      H1535   1.083       .  S
C1531      C1532   1.403       .  A
C1532      H1536   1.084       .  S
C1537      C1538   1.400   1_455  A
C1537      C1542   1.398       .  A
C1537      H1543   1.083       .  S
C1538      C1539   1.410       .  A
C1539      C1540   1.401   1_655  A
C1539      H1544   1.083       .  S
C1540      C1541   1.401       .  A
C1540      H1545   1.083       .  S
C1541      C1542   1.409       .  A
C1542      H1546   1.083       .  S
C1547      C1548   1.404       .  A
C1547      C1552   1.390       .  A
C1547      H1553   1.083       .  S
C1548      C1549   1.400       .  A
C1549      C1550   1.390       .  A
C1549      H1554   1.083       .  S
C1550      C1551   1.403       .  A
C1550      H1555   1.084       .  S
C1551      C1552   1.399       .  A
C1552      H1556   1.083       .  S
C1557      C1558   1.404       .  A
C1557      C1562   1.406   1_545  A
C1557      H1563   1.083       .  S
C1558      C1559   1.405       .  A
C1559      C1560   1.397   1_545  A
C1559      H1564   1.084       .  S
C1560      C1561   1.405       .  A
C1560      H1565   1.083       .  S
C1561      C1562   1.409       .  A
C1562      H1566   1.083       .  S
C1567      C1568   1.400   1_455  A
C1567      C1572   1.393       .  A
C1567      H1573   1.083   1_455  S
C1568      C1569   1.411       .  A
C1569      C1570   1.405   1_655  A
C1569      H1574   1.083       .  S
C1570      C1571   1.404       .  A
C1570      H1575   1.083       .  S
C1571      C1572   1.411       .  A
C1572      H1576   1.083       .  S
C1577      C1582   1.395       .  A
C1577      C3274   1.409       .  A
C1577      H1583   1.083       .  S
C1578      C3273   1.409       .  A
C1578      C3275   1.403       .  A
C1579      C1580   1.401       .  A
C1579      C3274   1.403       .  A
C1579      H3280   1.083       .  S
C1580      C1581   1.406       .  A
C1580      H1585   1.083       .  S
C1581      C1582   1.399       .  A
C1582      H1586   1.084       .  S
H1584      C3275   1.083       .  S
C1587      C1588   1.410       .  A
C1587      C1592   1.400       .  A
C1587      H1593   1.083       .  S
C1588      C1589   1.403       .  A
C1589      C1590   1.391       .  A
C1589      H1594   1.083       .  S
C1590      C1591   1.405       .  A
C1590      H1595   1.084       .  S
C1591      C1592   1.401       .  A
C1592      H1596   1.083       .  S
C1597      C3294   1.401       .  A
C1597      C3298   1.396       .  A
C1597      H1603   1.083   1_556  S
C1598      C1599   1.401       .  A
C1598      C3293   1.401       .  A
C1599      C1600   1.397       .  A
C1599      H1604   1.083       .  S
C1600      C1601   1.404       .  A
C1600      H1605   1.083       .  S
C1601      C1602   1.403       .  A
C1602      C3293   1.396       .  A
C1602      H3302   1.083       .  S
H1606      C3298   1.083   1_554  S
C1607      C1608   1.406       .  A
C1607      C1612   1.405       .  A
C1607      H1613   1.083       .  S
C1608      C1609   1.407       .  A
C1609      C1610   1.393       .  A
C1609      H1614   1.083       .  S
C1610      C1611   1.399       .  A
C1610      H1615   1.084       .  S
C1611      C1612   1.405       .  A
C1612      H1616   1.083       .  S
C1617      C1618   1.406       .  A
C1617      C1622   1.403   1_655  A
C1617      H1623   1.083       .  S
C1618      C1619   1.395   1_655  A
C1619      C1620   1.393       .  A
C1619      H1624   1.084   1_455  S
C1620      C1621   1.412       .  A
C1620      H1625   1.083       .  S
C1621      C1622   1.404       .  A
C1622      H1626   1.083       .  S
C1627      C1628   1.414       .  A
C1627      C1632   1.405       .  A
C1627      H1633   1.083       .  S
C1628      C1737   1.492   1_554  S
C1628      C1629   1.402       .  A
C1629      C1630   1.400       .  A
C1629      H1634   1.083   1_554  S
C1630      C1631   1.413       .  A
C1630      H1635   1.083       .  S
C1631      C1632   1.402       .  A
C1632      H1636   1.083       .  S
C1637      C1638   1.404       .  A
C1637      C1642   1.397       .  A
C1637      H1643   1.083       .  S
C1638      C1639   1.406       .  A
C1639      C1640   1.400       .  A
C1639      H1644   1.083       .  S
C1640      C1641   1.405       .  A
C1640      H1645   1.083       .  S
C1641      C1642   1.406       .  A
C1642      H1646   1.083       .  S
C1647      C1648   1.410       .  A
C1647      C1652   1.399       .  A
C1647      H1653   1.083       .  S
C1648      C1649   1.404       .  A
C1649      C1650   1.403       .  A
C1649      H1654   1.083       .  S
C1650      C1651   1.411       .  A
C1650      H1655   1.083       .  S
C1651      C1652   1.403       .  A
C1652      H1656   1.083       .  S
C1657      C1658   1.400   1_455  A
C1657      C1662   1.398       .  A
C1657      H1663   1.083       .  S
C1658      C1659   1.410       .  A
C1659      C1660   1.401   1_655  A
C1659      H1664   1.083       .  S
C1660      C1661   1.401       .  A
C1660      H1665   1.083       .  S
C1661      C1662   1.410       .  A
C1662      H1666   1.083       .  S
C1667      C1668   1.409       .  A
C1667      C1672   1.397       .  A
C1667      H1673   1.083       .  S
C1668      C1669   1.404       .  A
C1669      C1670   1.397       .  A
C1669      H1674   1.083       .  S
C1670      C1671   1.404       .  A
C1670      H1675   1.084       .  S
C1671      C1672   1.399       .  A
C1672      H1676   1.084       .  S
C1677      C1678   1.407       .  A
C1677      C1682   1.397       .  A
C1677      H1683   1.083       .  S
C1678      C1679   1.407       .  A
C1679      C1680   1.399       .  A
C1679      H1684   1.083       .  S
C1680      C1681   1.403       .  A
C1680      H1685   1.084       .  S
C1681      C1682   1.401       .  A
C1682      H1686   1.084       .  S
C1687      C1688   1.409       .  A
C1687      C1692   1.410       .  A
C1687      H1693   1.083       .  S
C1688      C1689   1.406       .  A
C1689      C1690   1.400       .  A
C1689      H1694   1.083       .  S
C1690      C1691   1.407       .  A
C1690      H1695   1.083       .  S
C1691      C1692   1.408       .  A
C1692      H1696   1.083       .  S
Zn1697     O1701   1.948       .  S
Zn1697     O1702   2.006       .  S
Zn1697     O1706   1.995       .  S
Zn1697     O1713   2.051       .  S
Zn1698     O1701   1.968       .  S
Zn1698     O1703   2.021       .  S
Zn1698     O1705   2.076       .  S
Zn1698     O1709   2.079       .  S
Zn1699     O1701   1.947       .  S
Zn1699     O1704   2.021       .  S
Zn1699     O1707   2.015       .  S
Zn1699     O1710   2.070       .  S
Zn1700     O1701   1.905       .  S
Zn1700     O1708   1.984       .  S
Zn1700     O1711   1.929       .  S
Zn1700     O1712   1.984       .  S
O1702      C1714   1.272       .  A
O1703      C1715   1.274       .  A
O1704      C1716   1.277       .  A
O1705      C1714   1.280       .  A
O1706      C1716   1.275       .  A
O1707      C1715   1.274       .  A
O1708      C1717   1.269       .  A
O1709      C1718   1.282       .  A
O1710      C1717   1.280       .  A
O1711      C1718   1.265       .  A
O1712      C1719   1.268       .  A
O1713      C1719   1.277       .  A
C1714      C3384   1.492       .  S
C1715      C3334   1.477       .  S
C1716      C3364   1.479       .  S
C1717      C3344   1.488       .  S
C1718      C3377   1.459       .  S
C1719      C3354   1.479       .  S
Zn1720     O1724   1.943       .  S
Zn1720     O1725   1.998   1_556  S
Zn1720     O1736   2.047       .  S
Zn1721     O1724   1.960       .  S
Zn1721     O1726   2.024       .  S
Zn1721     O1728   2.067       .  S
Zn1721     O1732   2.068       .  S
Zn1722     O1724   1.946       .  S
Zn1722     O1730   1.996       .  S
Zn1722     O1733   2.066       .  S
Zn1723     O1724   1.895       .  S
Zn1723     O1731   1.965       .  S
Zn1723     O1734   1.934       .  S
Zn1723     O1735   1.980       .  S
O1725      C1737   1.272   1_554  A
O1726      C1738   1.274       .  A
O1727      C1739   1.276       .  A
O1728      C1737   1.282       .  A
O1729      C1739   1.275       .  A
O1730      C1738   1.271       .  A
O1731      C1740   1.268       .  A
O1732      C1741   1.280       .  A
O1733      C1740   1.279       .  A
O1734      C1741   1.264       .  A
O1735      C1742   1.267       .  A
O1736      C1742   1.277       .  A
C1738      C3294   1.461       .  S
C1739      C3374   1.481       .  S
C1740      C3304   1.479       .  S
C1741      C3367   1.459       .  S
C1742      C3314   1.466       .  S
Zn1743     O1747   1.897       .  S
Zn1743     O1748   1.973       .  S
Zn1743     O1752   1.957       .  S
Zn1743     O1759   1.951       .  S
Zn1744     O1747   1.949       .  S
Zn1744     O1749   2.064       .  S
Zn1744     O1751   2.101       .  S
Zn1744     O1755   2.014       .  S
Zn1745     O1747   1.897       .  S
Zn1745     O1750   1.989       .  S
Zn1745     O1753   1.934       .  S
Zn1745     O1756   1.973       .  S
Zn1746     O1747   1.950       .  S
Zn1746     O1754   2.084       .  S
Zn1746     O1757   2.032       .  S
Zn1746     O1758   2.081       .  S
O1748      C1760   1.270       .  A
O1749      C1761   1.282       .  A
O1750      C1762   1.268       .  A
O1751      C1760   1.286       .  A
O1752      C1762   1.264       .  A
O1753      C1761   1.267       .  A
O1754      C1763   1.282       .  A
O1755      C1764   1.274       .  A
O1756      C1763   1.270       .  A
O1757      C1764   1.278       .  A
O1758      C1765   1.280       .  A
O1759      C1765   1.263       .  A
C1760      C3327   1.492       .  S
C1761      C3287   1.466       .  S
C1762      C3244   1.457       .  S
C1763      C3254   1.478       .  S
C1764      C3264   1.483       .  S
C1765      C3274   1.478       .  S
Zn1766     O1770   1.969       .  S
Zn1766     O1771   2.089       .  S
Zn1766     O1775   2.082       .  S
Zn1766     O1782   2.040       .  S
Zn1767     O1770   1.955       .  S
Zn1767     O1772   2.049       .  S
Zn1767     O1774   1.993       .  S
Zn1767     O1778   1.994       .  S
Zn1768     O1770   1.910       .  S
Zn1768     O1773   1.923       .  S
Zn1768     O1776   1.980       .  S
Zn1768     O1779   1.971       .  S
Zn1769     O1770   1.953       .  S
Zn1769     O1777   2.066       .  S
Zn1769     O1780   2.015       .  S
Zn1769     O1781   2.023       .  S
O1771      C1783   1.283       .  A
O1772      C1784   1.275       .  A
O1773      C1785   1.263       .  A
O1774      C1783   1.271       .  A
O1775      C1785   1.283       .  A
O1776      C1784   1.266       .  A
O1777      C1786   1.278       .  A
O1778      C1787   1.273       .  A
O1779      C1786   1.268       .  A
O1780      C1787   1.277       .  A
O1781      C1788   1.273       .  A
O1782      C1788   1.275       .  A
C1783      C3387   1.490       .  S
C1784      C3234   1.478       .  S
C1785      C3277   1.460       .  S
C1786      C3227   1.475       .  S
C1787      C3284   1.477       .  S
C1788      C3214   1.476       .  S
Zn1789     O1793   1.948       .  S
Zn1789     O1794   1.999       .  S
Zn1789     O1798   2.004       .  S
Zn1789     O1805   2.065       .  S
Zn1790     O1793   1.948       .  S
Zn1790     O1795   1.998       .  S
Zn1790     O1797   2.016       .  S
Zn1790     O1801   2.067       .  S
Zn1791     O1793   1.975       .  S
Zn1791     O1796   2.075       .  S
Zn1791     O1799   2.032       .  S
Zn1792     O1793   1.904       .  S
Zn1792     O1803   1.964       .  S
Zn1792     O1804   1.971       .  S
O1794      C1806   1.276       .  A
O1795      C1807   1.272       .  A
O1796      C1808   1.281       .  A
O1797      C1806   1.276       .  A
O1798      C1808   1.271       .  A
O1799      C1807   1.275       .  A
O1800      C1809   1.264       .  A
O1801      C1810   1.279       .  A
O1802      C1809   1.281       .  A
O1803      C1810   1.267       .  A
O1804      C1811   1.267       .  A
O1805      C1811   1.279       .  A
C1806      C3194   1.480       .  S
C1807      C3154   1.477       .  S
C1808      C3207   1.482       .  S
C1809      C3184   1.460       .  S
C1810      C3164   1.482       .  S
C1811      C3174   1.484       .  S
Zn1812     O1816   1.977       .  S
Zn1812     O1817   2.023       .  S
Zn1812     O1821   2.074       .  S
Zn1812     O1828   2.076       .  S
Zn1813     O1816   1.946       .  S
Zn1813     O1818   2.069       .  S
Zn1813     O1820   2.006       .  S
Zn1813     O1824   2.010       .  S
Zn1814     O1816   1.901       .  S
Zn1814     O1819   1.927       .  S
Zn1814     O1822   1.967       .  S
Zn1814     O1825   1.972       .  S
Zn1815     O1816   1.945       .  S
Zn1815     O1823   2.064       .  S
Zn1815     O1826   2.009       .  S
Zn1815     O1827   1.991       .  S
O1817      C1829   1.275       .  A
O1818      C1830   1.278       .  A
O1819      C1831   1.263       .  A
O1820      C1829   1.274       .  A
O1821      C1831   1.280       .  A
O1822      C1830   1.266       .  A
O1823      C1832   1.278       .  A
O1824      C1833   1.276       .  A
O1825      C1832   1.268       .  A
O1826      C1833   1.277       .  A
O1827      C1834   1.270       .  A
O1828      C1834   1.280       .  A
C1829      C3114   1.475       .  S
C1830      C3124   1.480       .  S
C1831      C3197   1.459       .  S
C1832      C3134   1.471       .  S
C1833      C3187   1.480       .  S
C1834      C3144   1.482       .  S
Zn1835     O1839   1.905       .  S
Zn1835     O1840   1.972       .  S
Zn1835     O1844   1.972       .  S
Zn1835     O1851   1.928       .  S
Zn1836     O1839   1.944       .  S
Zn1836     O1841   2.009       .  S
Zn1836     O1843   2.063       .  S
Zn1836     O1847   2.000       .  S
Zn1837     O1839   1.944       .  S
Zn1837     O1842   2.058       .  S
Zn1837     O1845   2.005       .  S
Zn1837     O1848   2.001       .  S
Zn1838     O1839   1.977       .  S
Zn1838     O1846   2.079       .  S
Zn1838     O1849   2.024       .  S
Zn1838     O1850   2.076       .  S
O1840      C1852   1.267       .  A
O1841      C1853   1.275       .  A
O1842      C1854   1.279       .  A
O1843      C1852   1.278       .  A
O1844      C1854   1.268       .  A
O1845      C1853   1.276       .  A
O1846      C1855   1.281       .  A
O1847      C1856   1.273       .  A
O1848      C1855   1.271       .  A
O1849      C1856   1.275       .  A
O1850      C1857   1.280       .  A
O1851      C1857   1.263       .  A
C1852      C3357   1.480       .  S
C1853      C3107   1.478       .  S
C1854      C3087   1.482       .  S
C1855      C3204   1.489       .  S
C1856      C3074   1.474       .  S
C1857      C3094   1.460       .  S
Zn1858     O1862   1.893       .  S
Zn1858     O1863   1.952       .  S
Zn1858     O1867   1.970       .  S
Zn1858     O1874   1.930       .  S
Zn1859     O1862   1.947       .  S
Zn1859     O1864   2.014       .  S
Zn1859     O1866   2.069       .  S
Zn1859     O1870   2.005       .  S
Zn1860     O1862   1.945       .  S
Zn1860     O1865   2.073       .  S
Zn1860     O1868   2.006       .  S
Zn1860     O1871   1.999       .  S
Zn1861     O1862   1.971       .  S
Zn1861     O1869   2.070       .  S
Zn1861     O1872   2.029       .  S
Zn1861     O1873   2.075       .  S
O1863      C1875   1.266       .  A
O1864      C1876   1.276       .  A
O1865      C1877   1.281       .  A
O1866      C1875   1.279       .  A
O1867      C1877   1.267       .  A
O1868      C1876   1.277       .  A
O1869      C1878   1.280       .  A
O1870      C1879   1.273       .  A
O1871      C1878   1.271       .  A
O1872      C1879   1.275       .  A
O1873      C1880   1.281       .  A
O1874      C1880   1.263       .  A
C1875      C3317   1.484       .  S
C1876      C3097   1.481       .  S
C1877      C3064   1.487       .  S
C1878      C3147   1.482       .  S
C1879      C3054   1.477       .  S
Zn1881     O1885   1.908       .  S
Zn1881     O1886   1.971       .  S
Zn1881     O1890   2.023       .  S
Zn1881     O1897   1.928       .  S
Zn1882     O1885   1.956       .  S
Zn1882     O1887   2.047       .  S
Zn1882     O1889   2.060       .  S
Zn1882     O1893   2.034       .  S
Zn1883     O1885   1.910       .  S
Zn1883     O1888   2.011       .  S
Zn1883     O1891   1.951       .  S
Zn1883     O1894   1.965       .  S
Zn1884     O1885   1.970       .  S
Zn1884     O1892   2.112       .  S
Zn1884     O1895   2.039       .  S
Zn1884     O1896   2.056       .  S
O1886      C1898   1.269       .  A
O1887      C1899   1.277       .  A
O1888      C1900   1.270       .  A
O1889      C1898   1.280       .  A
O1890      C1900   1.272       .  A
O1891      C1899   1.269       .  A
O1892      C1901   1.287       .  A
O1893      C1902   1.274       .  A
O1894      C1901   1.269       .  A
O1895      C1902   1.275       .  A
O1896      C1903   1.282       .  A
O1897      C1903   1.266       .  A
C1898      C3084   1.483       .  S
C1899      C3024   1.461       .  S
C1900      C3004   1.485       .  S
C1901      C3044   1.494       .  S
C1902      C3017   1.482       .  S
C1903      C3034   1.472       .  S
Zn1904     O1908   1.900       .  S
Zn1904     O1909   1.974       .  S
Zn1904     O1913   1.979       .  S
Zn1904     O1920   1.906       .  S
Zn1905     O1908   1.962       .  S
Zn1905     O1912   2.069       .  S
Zn1905     O1916   2.028       .  S
Zn1906     O1908   1.916       .  S
Zn1906     O1911   2.008       .  S
Zn1907     O1908   1.977       .  S
Zn1907     O1915   2.093       .  S
Zn1907     O1918   1.993       .  S
Zn1907     O1919   2.072       .  S
O1909      C1921   1.267       .  A
O1910      C1922   1.278       .  A
O1911      C1923   1.270       .  A
O1912      C1921   1.280       .  A
O1913      C1923   1.268       .  A
O1914      C1922   1.266       .  A
O1915      C1924   1.282       .  A
O1916      C1925   1.277       .  A
O1918      C1925   1.271       .  A
O1919      C1926   1.280       .  A
O1920      C1926   1.263       .  A
C1921      C3067   1.485       .  S
C1922      C3037   1.455       .  S
C1923      C2974   1.466       .  S
C1925      C2984   1.479       .  S
C1926      C3027   1.473       .  S
Zn1927     O1931   1.904       .  S
Zn1927     O1932   1.962       .  S
Zn1927     O1936   1.968       .  S
Zn1927     O1943   1.951       .  S
Zn1928     O1931   1.955       .  S
Zn1928     O1933   2.082       .  S
Zn1928     O1935   2.116       .  S
Zn1928     O1939   2.020       .  S
Zn1929     O1931   1.892       .  S
Zn1929     O1934   1.995       .  S
Zn1929     O1937   1.922       .  S
Zn1929     O1940   1.958       .  S
Zn1930     O1931   1.955       .  S
Zn1930     O1938   2.079       .  S
Zn1930     O1941   2.043       .  S
Zn1930     O1942   2.081       .  S
O1932      C1944   1.270       .  A
O1933      C1945   1.284       .  A
O1934      C1946   1.268       .  A
O1935      C1944   1.287       .  A
O1936      C1946   1.265       .  A
O1937      C1945   1.265       .  A
O1938      C1947   1.284       .  A
O1939      C1948   1.275       .  A
O1940      C1947   1.269       .  A
O1941      C1948   1.278       .  A
O1942      C1949   1.280       .  A
O1943      C1949   1.263       .  A
C1944      C2997   1.486       .  S
C1945      C2964   1.473       .  S
C1946      C2924   1.456       .  S
C1947      C2944   1.484       .  S
C1948      C2934   1.485       .  S
C1949      C2954   1.483       .  S
Zn1950     O1954   1.945       .  S
Zn1950     O1955   2.015       .  S
Zn1950     O1959   2.017       .  S
Zn1950     O1966   2.065       .  S
Zn1951     O1954   1.953       .  S
Zn1951     O1956   1.990       .  S
Zn1951     O1958   1.996       .  S
Zn1951     O1962   2.031       .  S
Zn1952     O1954   1.972       .  S
Zn1952     O1957   2.038       .  S
Zn1952     O1960   2.082       .  S
Zn1952     O1963   2.090       .  S
Zn1953     O1954   1.909       .  S
Zn1953     O1961   1.916       .  S
Zn1953     O1964   1.978       .  S
Zn1953     O1965   1.977       .  S
O1955      C1967   1.277       .  A
O1956      C1968   1.270       .  A
O1957      C1969   1.277       .  A
O1958      C1967   1.273       .  A
O1959      C1969   1.274       .  A
O1960      C1968   1.283       .  A
O1961      C1970   1.262       .  A
O1962      C1971   1.275       .  A
O1963      C1970   1.282       .  A
O1964      C1971   1.268       .  A
O1965      C1972   1.268       .  A
O1966      C1972   1.279       .  A
C1967      C2967   1.479       .  S
C1968      C3047   1.495       .  S
C1969      C2894   1.484       .  S
C1970      C2957   1.466       .  S
C1971      C2907   1.472       .  S
C1972      C2914   1.478       .  S
Zn1973     O1977   1.976       .  S
Zn1973     O1978   2.085       .  S
Zn1973     O1982   2.039       .  S
Zn1974     O1977   1.948       .  S
Zn1974     O1979   1.994       .  S
Zn1974     O1981   1.996       .  S
Zn1974     O1985   2.046       .  S
Zn1975     O1977   1.949       .  S
Zn1975     O1980   2.010       .  S
Zn1975     O1983   2.022       .  S
Zn1975     O1986   2.074       .  S
Zn1976     O1977   1.912       .  S
Zn1976     O1984   1.981       .  S
Zn1976     O1987   1.981       .  S
O1978      C1990   1.283       .  A
O1979      C1991   1.275       .  A
O1980      C1992   1.273       .  A
O1981      C1990   1.270       .  A
O1982      C1992   1.276       .  A
O1983      C1991   1.277       .  A
O1984      C1993   1.269       .  A
O1985      C1994   1.275       .  A
O1986      C1993   1.280       .  A
O1987      C1994   1.266       .  A
O1988      C1995   1.266       .  A
O1989      C1995   1.281       .  A
C1990      C2884   1.496       .  S
C1991      C2874   1.480       .  S
C1992      C2834   1.480       .  S
C1993      C2854   1.489       .  S
C1994      C2844   1.466       .  S
C1995      C2864   1.461       .  S
Zn1996     O2000   1.935       .  S
Zn1996     O2001   1.987       .  S
Zn1996     O2005   2.056       .  S
Zn1996     O2012   2.007       .  S
Zn1997     O2000   1.969       .  S
Zn1997     O2002   2.071       .  S
Zn1997     O2004   2.070       .  S
Zn1997     O2008   2.027       .  S
Zn1998     O2000   1.898       .  S
Zn1998     O2003   1.985       .  S
Zn1998     O2006   1.928       .  S
Zn1998     O2009   1.964       .  S
Zn1999     O2000   1.936       .  S
Zn1999     O2007   2.052       .  S
Zn1999     O2010   2.002       .  S
Zn1999     O2011   2.007       .  S
O2001      C2013   1.270       .  A
O2002      C2014   1.280       .  A
O2003      C2015   1.268       .  A
O2004      C2013   1.280       .  A
O2005      C2015   1.277       .  A
O2006      C2014   1.264       .  A
O2007      C2016   1.277       .  A
O2008      C2017   1.275       .  A
O2009      C2016   1.266       .  A
O2010      C2017   1.273       .  A
O2011      C2018   1.274       .  A
O2012      C2018   1.276       .  A
C2013      C2824   1.479       .  S
C2014      C2877   1.458       .  S
C2015      C2804   1.469       .  S
C2016      C2814   1.465       .  S
C2017      C2794   1.479       .  S
C2018      C2867   1.479       .  S
Zn2019     O2023   1.960       .  S
Zn2019     O2024   2.012       .  S
Zn2019     O2028   2.109       .  S
Zn2019     O2035   2.063       .  S
Zn2020     O2023   1.952       .  S
Zn2020     O2025   2.066       .  S
Zn2020     O2027   2.053       .  S
Zn2020     O2031   2.100       .  S
Zn2021     O2023   1.911       .  S
Zn2021     O2026   1.976       .  S
Zn2021     O2029   1.960       .  S
Zn2021     O2032   1.980       .  S
Zn2022     O2023   1.903       .  S
Zn2022     O2030   1.996       .  S
Zn2022     O2033   1.976       .  S
Zn2022     O2034   1.941       .  S
O2024      C2036   1.275       .  A
O2025      C2037   1.282       .  A
O2026      C2038   1.269       .  A
O2027      C2036   1.281       .  A
O2028      C2038   1.285       .  A
O2029      C2037   1.267       .  A
O2030      C2039   1.269       .  A
O2031      C2040   1.283       .  A
O2032      C2039   1.267       .  A
O2033      C2040   1.268       .  A
O2034      C2041   1.268       .  A
O2035      C2041   1.282       .  A
C2036      C3347   1.489       .  S
C2037      C2784   1.480       .  S
C2038      C2887   1.498       .  S
C2039      C2764   1.457       .  S
C2040      C3014   1.484       .  S
C2041      C2774   1.468       .  S
Zn2042     O2046   1.942       .  S
Zn2042     O2047   2.055       .  S
Zn2042     O2051   1.996       .  S
Zn2042     O2058   1.973       .  S
Zn2043     O2046   1.899       .  S
Zn2043     O2048   1.954       .  S
Zn2043     O2050   1.967       .  S
Zn2043     O2054   1.923       .  S
Zn2044     O2046   1.945       .  S
Zn2044     O2049   2.018       .  S
Zn2044     O2052   2.061       .  S
Zn2044     O2055   2.023       .  S
Zn2045     O2046   1.975       .  S
Zn2045     O2053   2.041       .  S
Zn2045     O2056   2.083       .  S
Zn2045     O2057   2.082       .  S
O2047      C2059   1.275       .  A
O2048      C2060   1.266       .  A
O2049      C2061   1.278       .  A
O2050      C2059   1.264       .  A
O2051      C2061   1.275       .  A
O2052      C2060   1.278       .  A
O2053      C2062   1.276       .  A
O2054      C2063   1.264       .  A
O2055      C2062   1.275       .  A
O2056      C2063   1.283       .  A
O2057      C2064   1.282       .  A
O2058      C2064   1.268       .  A
C2059      C3307   1.467       .  S
C2060      C2987   1.479       .  S
C2061      C2777   1.479       .  S
C2062      C2754   1.483       .  S
C2064      C2827   1.479       .  S
Zn2065     O2069   1.948       .  S
Zn2065     O2074   1.996       .  S
Zn2065     O2081   2.075       .  S
Zn2066     O2069   1.950       .  S
Zn2066     O2071   2.009       .  S
Zn2066     O2077   2.063       .  S
Zn2067     O2069   1.978       .  S
Zn2067     O2072   2.073       .  S
Zn2067     O2075   2.037       .  S
Zn2067     O2078   2.071       .  S
Zn2068     O2069   1.903       .  S
Zn2068     O2076   1.930       .  S
Zn2068     O2079   1.960       .  S
Zn2068     O2080   1.972       .  S
O2070      C2082   1.276       .  A
O2071      C2083   1.273       .  A
O2072      C2084   1.281       .  A
O2073      C2082   1.276       .  A
O2074      C2084   1.271       .  A
O2075      C2083   1.276       .  A
O2076      C2085   1.265       .  A
O2077      C2086   1.278       .  A
O2078      C2085   1.281       .  A
O2079      C2086   1.267       .  A
O2080      C2087   1.266       .  A
O2081      C2087   1.280       .  A
C2082      C2724   1.478       .  S
C2083      C2837   1.481       .  S
C2085      C2734   1.459       .  S
C2086      C2717   1.479       .  S
C2087      C2704   1.487       .  S
Zn2088     O2092   1.970       .  S
Zn2088     O2093   2.027       .  S
Zn2088     O2097   2.074       .  S
Zn2088     O2104   2.080       .  S
Zn2089     O2092   1.946       .  S
Zn2089     O2094   2.075       .  S
Zn2089     O2096   2.005       .  S
Zn2089     O2100   2.015       .  S
Zn2090     O2092   1.902       .  S
Zn2090     O2095   1.935       .  S
Zn2090     O2098   1.970       .  S
Zn2090     O2101   1.970       .  S
Zn2091     O2092   1.945       .  S
Zn2091     O2099   2.052       .  S
Zn2091     O2102   2.002       .  S
Zn2091     O2103   2.001       .  S
O2093      C2105   1.275       .  A
O2094      C2106   1.279       .  A
O2095      C2107   1.265       .  A
O2096      C2105   1.273       .  A
O2097      C2107   1.281       .  A
O2098      C2106   1.267       .  A
O2099      C2108   1.277       .  A
O2100      C2109   1.277       .  A
O2101      C2108   1.267       .  A
O2102      C2109   1.277       .  A
O2103      C2110   1.270       .  A
O2104      C2110   1.282       .  A
C2105      C2797   1.471       .  S
C2106      C2684   1.486       .  S
C2107      C2727   1.459       .  S
C2108      C2674   1.469       .  S
C2109      C2737   1.479       .  S
C2110      C2694   1.496       .  S
Zn2111     O2115   1.950       .  S
Zn2111     O2116   2.070       .  S
Zn2111     O2120   2.046       .  S
Zn2111     O2127   2.082       .  S
Zn2112     O2115   1.905       .  S
Zn2112     O2117   1.972       .  S
Zn2112     O2119   1.958       .  S
Zn2112     O2123   1.978       .  S
Zn2113     O2115   1.957       .  S
Zn2113     O2118   2.017       .  S
Zn2113     O2121   2.112       .  S
Zn2113     O2124   2.067       .  S
Zn2114     O2115   1.900       .  S
Zn2114     O2122   1.939       .  S
Zn2114     O2125   1.999       .  S
Zn2114     O2126   1.974       .  S
O2116      C2128   1.282       .  A
O2117      C2129   1.268       .  A
O2118      C2130   1.276       .  A
O2119      C2128   1.267       .  A
O2120      C2130   1.278       .  A
O2121      C2129   1.286       .  A
O2122      C2131   1.268       .  A
O2123      C2132   1.267       .  A
O2124      C2131   1.282       .  A
O2125      C2132   1.270       .  A
O2126      C2133   1.267       .  A
O2127      C2133   1.281       .  A
C2128      C2654   1.481       .  S
C2129      C2697   1.498       .  S
C2130      C3257   1.486       .  S
C2131      C2664   1.473       .  S
C2132      C2767   1.456       .  S
C2133      C2937   1.474       .  S
Zn2134     O2138   1.941       .  S
Zn2134     O2139   2.059       .  S
Zn2134     O2143   2.003       .  S
Zn2134     O2150   1.982       .  S
Zn2135     O2138   1.899       .  S
Zn2135     O2140   1.961       .  S
Zn2135     O2142   1.976       .  S
Zn2135     O2146   1.919       .  S
Zn2136     O2138   1.940       .  S
Zn2136     O2141   2.007       .  S
Zn2136     O2144   2.055       .  S
Zn2136     O2147   2.020       .  S
Zn2137     O2138   1.977       .  S
Zn2137     O2145   2.045       .  S
Zn2137     O2148   2.087       .  S
Zn2137     O2149   2.084       .  S
O2139      C2151   1.277       .  A
O2140      C2152   1.266       .  A
O2141      C2153   1.277       .  A
O2142      C2151   1.267       .  A
O2143      C2153   1.275       .  A
O2144      C2152   1.276       .  A
O2145      C2154   1.277       .  A
O2146      C2155   1.263       .  A
O2147      C2154   1.275       .  A
O2148      C2155   1.283       .  A
O2149      C2156   1.282       .  A
O2150      C2156   1.269       .  A
C2151      C3224   1.474       .  S
C2152      C2904   1.472       .  S
C2154      C2757   1.483       .  S
C2155      C2657   1.468       .  S
C2156      C2747   1.481       .  S
Zn2157     O2161   1.899       .  S
Zn2157     O2162   1.985       .  S
Zn2157     O2166   1.926       .  S
Zn2157     O2173   1.969       .  S
Zn2158     O2161   1.906       .  S
Zn2158     O2163   1.975       .  S
Zn2158     O2165   1.961       .  S
Zn2158     O2169   1.949       .  S
Zn2159     O2161   1.957       .  S
Zn2159     O2164   2.068       .  S
Zn2159     O2167   2.101       .  S
Zn2159     O2170   2.017       .  S
Zn2160     O2161   1.952       .  S
Zn2160     O2168   2.035       .  S
Zn2160     O2171   2.078       .  S
Zn2160     O2172   2.087       .  S
O2162      C2174   1.268       .  A
O2163      C2175   1.270       .  A
O2164      C2176   1.282       .  A
O2165      C2174   1.265       .  A
O2166      C2176   1.266       .  A
O2167      C2175   1.286       .  A
O2168      C2177   1.278       .  A
O2169      C2178   1.262       .  A
O2170      C2177   1.274       .  A
O2171      C2178   1.280       .  A
O2172      C2179   1.284       .  A
O2173      C2179   1.269       .  A
C2174      C3247   1.454       .  S
C2175      C2644   1.493       .  S
C2176      C2624   1.466       .  S
C2177      C2614   1.485       .  S
C2178      C2634   1.481       .  S
C2179      C2707   1.489       .  S
Zn2180     O2184   1.946       .  S
Zn2180     O2185   2.021       .  S
Zn2180     O2189   2.060       .  S
Zn2180     O2196   2.016       .  S
Zn2181     O2184   1.967       .  S
Zn2181     O2186   2.085       .  S
Zn2181     O2188   2.042       .  S
Zn2181     O2192   2.090       .  S
Zn2182     O2184   1.905       .  S
Zn2182     O2187   1.968       .  S
Zn2182     O2190   1.922       .  S
Zn2182     O2193   1.980       .  S
Zn2183     O2184   1.949       .  S
Zn2183     O2191   2.040       .  S
Zn2183     O2194   1.978       .  S
Zn2183     O2195   1.992       .  S
O2185      C2197   1.273       .  A
O2186      C2198   1.284       .  A
O2187      C2199   1.268       .  A
O2188      C2197   1.276       .  A
O2189      C2199   1.278       .  A
O2190      C2198   1.264       .  A
O2191      C2200   1.274       .  A
O2192      C2201   1.283       .  A
O2193      C2200   1.266       .  A
O2194      C2201   1.270       .  A
O2195      C2202   1.273       .  A
O2196      C2202   1.277       .  A
C2197      C3217   1.479       .  S
C2198      C2637   1.464       .  S
C2199      C2677   1.469       .  S
C2200      C2594   1.474       .  S
C2201      C2604   1.488       .  S
C2202      C2627   1.478       .  S
Zn2203     O2207   1.940       .  S
Zn2203     O2208   1.995       .  S
Zn2203     O2212   1.997       .  S
Zn2203     O2219   2.051       .  S
Zn2204     O2207   1.965       .  S
Zn2204     O2209   2.035       .  S
Zn2204     O2211   2.073       .  S
Zn2204     O2215   2.072       .  S
Zn2205     O2207   1.940       .  S
Zn2205     O2210   2.015       .  S
Zn2205     O2213   2.001       .  S
Zn2205     O2216   2.061       .  S
Zn2206     O2207   1.894       .  S
Zn2206     O2214   1.975       .  S
Zn2206     O2217   1.929       .  S
Zn2206     O2218   1.987       .  S
O2208      C2220   1.271       .  A
O2209      C2221   1.276       .  A
O2210      C2222   1.276       .  A
O2211      C2220   1.282       .  A
O2212      C2222   1.276       .  A
O2213      C2221   1.272       .  A
O2214      C2223   1.269       .  A
O2215      C2224   1.281       .  A
O2216      C2223   1.278       .  A
O2217      C2224   1.265       .  A
O2218      C2225   1.269       .  A
O2219      C2225   1.278       .  A
C2220      C2647   1.493       .  S
C2221      C3337   1.479       .  S
C2222      C2584   1.479       .  S
C2223      C2807   1.481       .  S
C2224      C2574   1.462       .  S
C2225      C3127   1.480       .  S
Zn2226     O2230   1.945       .  S
Zn2226     O2231   1.990       .  S
Zn2226     O2235   1.995       .  S
Zn2226     O2242   2.049       .  S
Zn2227     O2230   1.965       .  S
Zn2227     O2232   2.010       .  S
Zn2227     O2234   2.076       .  S
Zn2228     O2230   1.957       .  S
Zn2228     O2233   2.009       .  S
Zn2228     O2236   2.010       .  S
Zn2228     O2239   2.062       .  S
Zn2229     O2230   1.905       .  S
Zn2229     O2241   1.979   1_556  S
O2231      C2243   1.271       .  A
O2232      C2244   1.272       .  A
O2233      C2245   1.276       .  A
O2234      C2243   1.280       .  A
O2235      C2245   1.274       .  A
O2236      C2244   1.272       .  A
O2238      C2247   1.280       .  A
O2239      C2246   1.278       .  A
O2240      C2247   1.264       .  A
O2241      C2248   1.266   1_554  A
O2242      C2248   1.275       .  A
C2243      C2607   1.489       .  S
C2244      C3297   1.467       .  S
C2245      C2577   1.471       .  S
C2246      C2847   1.479       .  S
C2247      C2587   1.457       .  S
C2248      C3167   1.466       .  S
Zn2249     O2253   1.889       .  S
Zn2249     O2254   1.963       .  S
Zn2249     O2258   1.917       .  S
Zn2249     O2265   1.972       .  S
Zn2250     O2253   1.935       .  S
Zn2250     O2255   2.001       .  S
Zn2250     O2257   2.066       .  S
Zn2250     O2261   2.003       .  S
Zn2251     O2253   1.967       .  S
Zn2251     O2256   2.095       .  S
Zn2251     O2259   2.047       .  S
Zn2251     O2262   2.104       .  S
Zn2252     O2253   1.941       .  S
Zn2252     O2260   1.982       .  S
Zn2252     O2263   1.992       .  S
Zn2252     O2264   2.038       .  S
O2254      C2266   1.267       .  A
O2255      C2267   1.272       .  A
O2256      C2268   1.285       .  A
O2257      C2266   1.277       .  A
O2258      C2268   1.264       .  A
O2259      C2267   1.277       .  A
O2260      C2269   1.269       .  A
O2261      C2270   1.276       .  A
O2262      C2269   1.286       .  A
O2263      C2270   1.274       .  A
O2264      C2271   1.275       .  A
O2265      C2271   1.267       .  A
C2266      C3137   1.475       .  S
C2267      C3007   1.478       .  S
C2268      C2544   1.470       .  S
C2269      C2564   1.498       .  S
C2270      C2554   1.474       .  S
C2271      C2817   1.479       .  S
Zn2272     O2276   1.969       .  S
Zn2272     O2277   2.013       .  S
Zn2272     O2288   2.088       .  S
Zn2273     O2276   1.947       .  S
Zn2273     O2278   2.071       .  S
Zn2273     O2280   2.044       .  S
Zn2273     O2284   2.061       .  S
Zn2274     O2276   1.910       .  S
Zn2274     O2282   1.973       .  S
Zn2274     O2285   2.000       .  S
Zn2275     O2276   1.910       .  S
Zn2275     O2283   1.980       .  S
Zn2275     O2286   1.952       .  S
Zn2275     O2287   1.957       .  S
O2277      C2289   1.273       .  A
O2278      C2290   1.282       .  A
O2279      C2291   1.266       .  A
O2280      C2289   1.278       .  A
O2281      C2291   1.280       .  A
O2282      C2290   1.269       .  A
O2283      C2292   1.267       .  A
O2284      C2293   1.279       .  A
O2285      C2292   1.268       .  A
O2286      C2293   1.265       .  A
O2287      C2294   1.268       .  A
O2288      C2294   1.282       .  A
C2289      C2857   1.488       .  S
C2290      C3177   1.486       .  S
C2291      C2557   1.460       .  S
C2292      C2977   1.468       .  S
C2293      C2547   1.459       .  S
C2294      C2534   1.484       .  S
Zn2295     O2299   1.953       .  S
Zn2295     O2300   2.061       .  S
Zn2295     O2304   2.078       .  S
Zn2295     O2311   2.020       .  S
Zn2296     O2299   1.907       .  S
Zn2296     O2301   1.981       .  S
Zn2296     O2303   1.952       .  S
Zn2296     O2307   1.969       .  S
Zn2297     O2299   1.891       .  S
Zn2297     O2302   1.959       .  S
Zn2297     O2305   1.985       .  S
Zn2297     O2308   1.917       .  S
Zn2298     O2299   1.965       .  S
Zn2298     O2306   2.096       .  S
Zn2298     O2309   2.122       .  S
Zn2298     O2310   2.014       .  S
O2300      C2312   1.277       .  A
O2301      C2313   1.267       .  A
O2302      C2314   1.267       .  A
O2303      C2312   1.266       .  A
O2304      C2314   1.282       .  A
O2305      C2313   1.268       .  A
O2306      C2315   1.284       .  A
O2307      C2316   1.269       .  A
O2308      C2315   1.265       .  A
O2309      C2316   1.289       .  A
O2310      C2317   1.274       .  A
O2311      C2317   1.277       .  A
C2312      C2524   1.473       .  S
C2313      C2927   1.466       .  S
C2314      C2504   1.486       .  S
C2315      C2514   1.477       .  S
C2316      C2567   1.498       .  S
C2317      C2714   1.482       .  S
Zn2318     O2322   1.916       .  S
Zn2318     O2323   1.975       .  S
Zn2318     O2327   2.008       .  S
Zn2318     O2334   1.957       .  S
Zn2319     O2322   1.964       .  S
Zn2319     O2324   2.039       .  S
Zn2319     O2326   2.067       .  S
Zn2319     O2330   2.003       .  S
Zn2320     O2322   1.919       .  S
Zn2320     O2325   2.032       .  S
Zn2320     O2328   1.961       .  S
Zn2320     O2331   1.974       .  S
Zn2321     O2322   1.959       .  S
Zn2321     O2329   2.069       .  S
Zn2321     O2332   2.046       .  S
Zn2321     O2333   2.072       .  S
O2323      C2335   1.269       .  A
O2324      C2336   1.278       .  A
O2325      C2337   1.274       .  A
O2326      C2335   1.279       .  A
O2327      C2337   1.270       .  A
O2328      C2336   1.269       .  A
O2329      C2338   1.282       .  A
O2330      C2339   1.271       .  A
O2331      C2338   1.270       .  A
O2332      C2339   1.277       .  A
O2333      C2340   1.280       .  A
O2334      C2340   1.269       .  A
C2335      C2537   1.473       .  S
C2336      C2527   1.457       .  S
C2337      C2897   1.486       .  S
C2338      C2494   1.485       .  S
C2339      C2687   1.488       .  S
C2340      C2517   1.471       .  S
Zn2341     O2345   1.974       .  S
Zn2341     O2346   2.030       .  S
Zn2341     O2350   2.074       .  S
Zn2341     O2357   2.078       .  S
Zn2342     O2345   1.947       .  S
Zn2342     O2347   2.079       .  S
Zn2342     O2349   2.002       .  S
Zn2343     O2345   1.899       .  S
Zn2343     O2348   1.933       .  S
Zn2343     O2351   1.961       .  S
Zn2343     O2354   1.968       .  S
Zn2344     O2345   1.943       .  S
Zn2344     O2352   2.065       .  S
Zn2344     O2356   2.006       .  S
O2346      C2358   1.275       .  A
O2347      C2359   1.280       .  A
O2348      C2360   1.265       .  A
O2349      C2358   1.273       .  A
O2350      C2360   1.281       .  A
O2351      C2359   1.267       .  A
O2352      C2361   1.280       .  A
O2353      C2362   1.277       .  A
O2354      C2361   1.266       .  A
O2355      C2362   1.276       .  A
O2356      C2363   1.272       .  A
O2357      C2363   1.281       .  A
C2358      C3157   1.475       .  S
C2359      C2617   1.486       .  S
C2360      C2474   1.461       .  S
C2361      C2507   1.483       .  S
C2362      C2464   1.483       .  S
Zn2364     O2368   1.977       .  S
Zn2364     O2369   2.031       .  S
Zn2364     O2373   2.079       .  S
Zn2364     O2380   2.080       .  S
Zn2365     O2368   1.943       .  S
Zn2365     O2370   2.064       .  S
Zn2365     O2372   1.999       .  S
Zn2365     O2376   2.017       .  S
Zn2366     O2368   1.902       .  S
Zn2366     O2371   1.928       .  S
Zn2366     O2374   1.966       .  S
Zn2366     O2377   1.976       .  S
Zn2367     O2368   1.941       .  S
Zn2367     O2375   2.058       .  S
Zn2367     O2378   2.002       .  S
Zn2367     O2379   2.002       .  S
O2369      C2381   1.276       .  A
O2370      C2382   1.278       .  A
O2371      C2383   1.263       .  A
O2372      C2381   1.273       .  A
O2373      C2383   1.281       .  A
O2374      C2382   1.267       .  A
O2375      C2384   1.279       .  A
O2376      C2385   1.275       .  A
O2377      C2384   1.268       .  A
O2378      C2385   1.275       .  A
O2379      C2386   1.272       .  A
O2380      C2386   1.282       .  A
C2381      C3117   1.475       .  S
C2382      C2597   1.479       .  S
C2383      C2467   1.462       .  S
C2384      C2497   1.483       .  S
C2385      C2477   1.480       .  S
C2386      C2454   1.485       .  S
Zn2387     O2391   1.895       .  S
Zn2387     O2392   1.954       .  S
Zn2387     O2396   1.966       .  S
Zn2387     O2403   1.934       .  S
Zn2388     O2391   1.947       .  S
Zn2388     O2393   2.020       .  S
Zn2388     O2395   2.079       .  S
Zn2388     O2399   2.000       .  S
Zn2389     O2391   1.943       .  S
Zn2389     O2394   2.065       .  S
Zn2389     O2397   2.005       .  S
Zn2389     O2400   2.006       .  S
Zn2390     O2391   1.970       .  S
Zn2390     O2398   2.074       .  S
Zn2390     O2401   2.024       .  S
Zn2390     O2402   2.072       .  S
O2392      C2404   1.266       .  A
O2393      C2405   1.276       .  A
O2394      C2406   1.280       .  A
O2395      C2404   1.280       .  A
O2396      C2406   1.267       .  A
O2397      C2405   1.277       .  A
O2398      C2407   1.280       .  A
O2399      C2408   1.273       .  A
O2400      C2407   1.272       .  A
O2401      C2408   1.275       .  A
O2402      C2409   1.280       .  A
O2403      C2409   1.264       .  A
C2404      C3267   1.486       .  S
C2405      C2434   1.483       .  S
C2406      C2947   1.481       .  S
C2407      C2457   1.486       .  S
C2408      C3077   1.474       .  S
C2409      C2444   1.460       .  S
Zn2410     O2414   1.947       .  S
Zn2410     O2415   2.061       .  S
Zn2410     O2419   2.002       .  S
Zn2410     O2426   2.001       .  S
Zn2411     O2414   1.905       .  S
Zn2411     O2416   1.978       .  S
Zn2411     O2418   1.977       .  S
Zn2411     O2422   1.925       .  S
Zn2412     O2414   1.944       .  S
Zn2412     O2417   2.014       .  S
Zn2412     O2420   2.061       .  S
Zn2412     O2423   2.000       .  S
Zn2413     O2414   1.980       .  S
Zn2413     O2421   2.035       .  S
Zn2413     O2424   2.083       .  S
Zn2413     O2425   2.082       .  S
O2415      C2427   1.279       .  A
O2416      C2428   1.268       .  A
O2417      C2429   1.275       .  A
O2418      C2427   1.268       .  A
O2419      C2429   1.275       .  A
O2420      C2428   1.278       .  A
O2421      C2430   1.276       .  A
O2422      C2431   1.263       .  A
O2423      C2430   1.273       .  A
O2424      C2431   1.281       .  A
O2425      C2432   1.282       .  A
O2426      C2432   1.272       .  A
C2427      C2917   1.480       .  S
C2428      C3237   1.479       .  S
C2430      C3057   1.477       .  S
C2431      C2437   1.463       .  S
C2432      C2484   1.486       .  S
C2433      C2434   1.406       .  A
C2433      C2438   1.397       .  A
C2433      H2439   1.083       .  S
C2434      C2435   1.408       .  A
C2435      C2436   1.401       .  A
C2435      H2440   1.083       .  S
C2436      C2437   1.402       .  A
C2436      H2441   1.083       .  S
C2437      C2438   1.403       .  A
C2438      H2442   1.084       .  S
C2443      C2444   1.400       .  A
C2443      C2448   1.397       .  A
C2443      H2449   1.084       .  S
C2444      C2445   1.403       .  A
C2445      C2446   1.398       .  A
C2445      H2450   1.084       .  S
C2446      C2447   1.405       .  A
C2446      H2451   1.083       .  S
C2447      C2448   1.408       .  A
C2453      C2454   1.411       .  A
C2453      C2458   1.404       .  A
C2453      H2459   1.084       .  S
C2454      C2455   1.401       .  A
C2455      C2456   1.405       .  A
C2455      H2460   1.083       .  S
C2456      C2457   1.411       .  A
C2456      H2461   1.084       .  S
C2457      C2458   1.401       .  A
C2458      H2462   1.083       .  S
C2463      C2464   1.408       .  A
C2463      C2468   1.401       .  A
C2463      H2469   1.083       .  S
C2464      C2465   1.406       .  A
C2465      C2466   1.396       .  A
C2465      H2470   1.083       .  S
C2466      C2467   1.403       .  A
C2466      H2471   1.084       .  S
C2467      C2468   1.402       .  A
C2468      H2472   1.083       .  S
C2473      C2474   1.402       .  A
C2473      C2478   1.395       .  A
C2473      H2479   1.084       .  S
C2474      C2475   1.401       .  A
C2475      C2476   1.400       .  A
C2475      H2480   1.083       .  S
C2476      C2477   1.409       .  A
C2476      H2481   1.083       .  S
C2477      C2478   1.405       .  A
C2478      H2482   1.083       .  S
C2483      C2484   1.411       .  A
C2483      H2489   1.084       .  S
C2484      C2485   1.401       .  A
C2485      C2486   1.405       .  A
C2485      H2490   1.083       .  S
C2486      C2487   1.412       .  A
C2486      H2491   1.084       .  S
C2488      H2492   1.083       .  S
C2493      C2494   1.402       .  A
C2493      C2498   1.399   1_565  A
C2493      H2499   1.083       .  S
C2494      C2495   1.412       .  A
C2495      C2496   1.398       .  A
C2495      H2500   1.083       .  S
C2496      C2497   1.401   1_565  A
C2496      H2501   1.083   1_565  S
C2497      C2498   1.411       .  A
C2498      H2502   1.083       .  S
C2503      C2504   1.401       .  A
C2503      C2508   1.400   1_565  A
C2503      H2509   1.083       .  S
C2504      C2505   1.413       .  A
C2505      C2506   1.398       .  A
C2505      H2510   1.083       .  S
C2506      C2507   1.399   1_565  A
C2506      H2511   1.083   1_565  S
C2507      C2508   1.412       .  A
C2508      H2512   1.083       .  S
C2513      C2518   1.410       .  A
C2513      H2519   1.083       .  S
C2515      C2516   1.387       .  A
C2516      C2517   1.399       .  A
C2516      H2521   1.084       .  S
C2517      C2518   1.409       .  A
C2518      H2522   1.083       .  S
C2523      C2524   1.400       .  A
C2523      C2528   1.400       .  A
C2523      H2529   1.083       .  S
C2524      C2525   1.410       .  A
C2525      C2526   1.392       .  A
C2525      H2530   1.083       .  S
C2526      C2527   1.394       .  A
C2526      H2531   1.083       .  S
C2527      C2528   1.407       .  A
C2528      H2532   1.084       .  S
C2533      C2534   1.406       .  A
C2533      C2538   1.409       .  A
C2533      H2539   1.083       .  S
C2534      C2535   1.408       .  A
C2535      C2536   1.392       .  A
C2535      H2540   1.083       .  S
C2536      C2537   1.399       .  A
C2536      H2541   1.084       .  S
C2537      C2538   1.407       .  A
C2538      H2542   1.083       .  S
C2543      C2544   1.410       .  A
C2543      C2548   1.391       .  A
C2543      H2549   1.084       .  S
C2544      C2545   1.400       .  A
C2545      C2546   1.403       .  A
C2545      H2550   1.083       .  S
C2546      C2547   1.408       .  A
C2546      H2551   1.084       .  S
C2547      C2548   1.394       .  A
C2548      H2552   1.084       .  S
C2553      C2554   1.404       .  A
C2553      C2558   1.389       .  A
C2553      H2559   1.083       .  S
C2554      C2555   1.408       .  A
C2555      C2556   1.400       .  A
C2555      H2560   1.083       .  S
C2556      C2557   1.402       .  A
C2556      H2561   1.083       .  S
C2557      C2558   1.402       .  A
C2558      H2562   1.084       .  S
C2563      C2564   1.401       .  A
C2563      C2568   1.403       .  A
C2563      H2569   1.083       .  S
C2564      C2565   1.417       .  A
C2565      C2566   1.406       .  A
C2565      H2570   1.083       .  S
C2566      C2567   1.402       .  A
C2566      H2571   1.083       .  S
C2567      C2568   1.416       .  A
C2568      H2572   1.083       .  S
C2573      C2574   1.407       .  A
C2573      C2578   1.393       .  A
C2573      H2579   1.084       .  S
C2574      C2575   1.398       .  A
C2575      C2576   1.398       .  A
C2575      H2580   1.083       .  S
C2576      C2577   1.410       .  A
C2576      H2581   1.083       .  S
C2577      C2578   1.400       .  A
C2578      H2582   1.083       .  S
C2583      C2584   1.407       .  A
C2583      C2588   1.396       .  A
C2583      H2589   1.083       .  S
C2584      C2585   1.406       .  A
C2585      C2586   1.398       .  A
C2585      H2590   1.083       .  S
C2586      C2587   1.403       .  A
C2586      H2591   1.084       .  S
C2587      C2588   1.400       .  A
C2588      H2592   1.084       .  S
C2593      C2594   1.409       .  A
C2593      C2598   1.401       .  A
C2593      H2599   1.083       .  S
C2594      C2595   1.398       .  A
C2595      C2596   1.396       .  A
C2595      H2600   1.083       .  S
C2596      C2597   1.410       .  A
C2596      H2601   1.083       .  S
C2597      C2598   1.401       .  A
C2598      H2602   1.083       .  S
C2603      C2604   1.408       .  A
C2603      C2608   1.411       .  A
C2603      H2609   1.083       .  S
C2604      C2605   1.406       .  A
C2605      C2606   1.396       .  A
C2605      H2610   1.083       .  S
C2606      C2607   1.405       .  A
C2606      H2611   1.083       .  S
C2607      C2608   1.409       .  A
C2608      H2612   1.083       .  S
C2613      C2614   1.411       .  A
C2613      C2618   1.405       .  A
C2613      H2619   1.083       .  S
C2614      C2615   1.401       .  A
C2615      C2616   1.394       .  A
C2615      H2620   1.083       .  S
C2616      C2617   1.410       .  A
C2616      H2621   1.083       .  S
C2617      C2618   1.404       .  A
C2618      H2622   1.083       .  S
C2623      C2628   1.391       .  A
C2623      H2629   1.084       .  S
C2625      C2626   1.401       .  A
C2625      H2630   1.083       .  S
C2626      C2627   1.410       .  A
C2626      H2631   1.083       .  S
C2627      C2628   1.403       .  A
C2628      H2632   1.083       .  S
C2633      C2634   1.414       .  A
C2633      C2638   1.397       .  A
C2633      H2639   1.083       .  S
C2634      C2635   1.400       .  A
C2635      C2636   1.398       .  A
C2635      H2640   1.083       .  S
C2636      C2637   1.409       .  A
C2636      H2641   1.084       .  S
C2637      C2638   1.396       .  A
C2638      H2642   1.083       .  S
C2643      C2644   1.402       .  A
C2643      C2648   1.404       .  A
C2643      H2649   1.083       .  S
C2644      C2645   1.413       .  A
C2645      C2646   1.401       .  A
C2645      H2650   1.083       .  S
C2646      C2647   1.402       .  A
C2646      H2651   1.083       .  S
C2647      C2648   1.414       .  A
C2648      H2652   1.083       .  S
C2653      C2654   1.400       .  A
C2653      C2658   1.397       .  A
C2653      H2659   1.083       .  S
C2654      C2655   1.413       .  A
C2655      C2656   1.398       .  A
C2655      H2660   1.083       .  S
C2656      C2657   1.398       .  A
C2656      H2661   1.083       .  S
C2657      C2658   1.409       .  A
C2658      H2662   1.084       .  S
C2663      C2664   1.402       .  A
C2663      C2668   1.401       .  A
C2663      H2669   1.083       .  S
C2664      C2665   1.406       .  A
C2665      C2666   1.390       .  A
C2665      H2670   1.084       .  S
C2666      C2667   1.402       .  A
C2666      H2671   1.083       .  S
C2667      C2668   1.410       .  A
C2673      C2674   1.402       .  A
C2673      C2678   1.393   1_565  A
C2673      H2679   1.084       .  S
C2674      C2675   1.404       .  A
C2675      C2676   1.403   1_565  A
C2675      H2680   1.083       .  S
C2676      C2677   1.405       .  A
C2676      H2681   1.083       .  S
C2677      C2678   1.402       .  A
C2678      H2682   1.084       .  S
C2683      C2684   1.403       .  A
C2683      C2688   1.403       .  A
C2683      H2689   1.083       .  S
C2684      C2685   1.410       .  A
C2685      C2686   1.398       .  A
C2685      H2690   1.083       .  S
C2686      C2687   1.402       .  A
C2686      H2691   1.083       .  S
C2687      C2688   1.412       .  A
C2688      H2692   1.083       .  S
C2693      C2694   1.401       .  A
C2693      C2698   1.401       .  A
C2693      H2699   1.083       .  S
C2694      C2695   1.415       .  A
C2695      C2696   1.407       .  A
C2695      H2700   1.083       .  S
C2696      C2697   1.403       .  A
C2696      H2701   1.083       .  S
C2697      C2698   1.415       .  A
C2698      H2702   1.083       .  S
C2703      C2704   1.400       .  A
C2703      C2708   1.400   1_565  A
C2703      H2709   1.083       .  S
C2704      C2705   1.413       .  A
C2705      C2706   1.401   1_565  A
C2705      H2710   1.083       .  S
C2706      C2707   1.402       .  A
C2706      H2711   1.083       .  S
C2707      C2708   1.414       .  A
C2708      H2712   1.083       .  S
C2713      C2714   1.410       .  A
C2713      C2718   1.403       .  A
C2713      H2719   1.083       .  S
C2714      C2715   1.402       .  A
C2715      C2716   1.393       .  A
C2715      H2720   1.083       .  S
C2716      C2717   1.407       .  A
C2716      H2721   1.083       .  S
C2717      C2718   1.403       .  A
C2718      H2722   1.083       .  S
C2723      C2724   1.404       .  A
C2723      C2728   1.398       .  A
C2723      H2729   1.083       .  S
C2724      C2725   1.408       .  A
C2725      C2726   1.397       .  A
C2725      H2730   1.083       .  S
C2726      C2727   1.399       .  A
C2726      H2731   1.083       .  S
C2727      C2728   1.404       .  A
C2728      H2732   1.084       .  S
C2733      C2734   1.400       .  A
C2733      C2738   1.400       .  A
C2733      H2739   1.083       .  S
C2734      C2735   1.403       .  A
C2735      C2736   1.394       .  A
C2735      H2740   1.084       .  S
C2736      C2737   1.405       .  A
C2736      H2741   1.083       .  S
C2737      C2738   1.409       .  A
C2738      H2742   1.083       .  S
C2743      C2744   1.412       .  A
C2743      C2748   1.403       .  A
C2743      H2749   1.083       .  S
C2745      H2750   1.083       .  S
C2746      C2747   1.411       .  A
C2746      H2751   1.084       .  S
C2747      C2748   1.399       .  A
C2748      H2752   1.083       .  S
C2753      C2754   1.405       .  A
C2753      C2758   1.400       .  A
C2753      H2759   1.083       .  S
C2754      C2755   1.406       .  A
C2755      C2756   1.403       .  A
C2755      H2760   1.083       .  S
C2756      C2757   1.405       .  A
C2756      H2761   1.083       .  S
C2757      C2758   1.406       .  A
C2758      H2762   1.083       .  S
C2763      C2764   1.401       .  A
C2763      C2768   1.393       .  A
C2763      H2769   1.083       .  S
C2764      C2765   1.401       .  A
C2765      C2766   1.392       .  A
C2765      H2770   1.083       .  S
C2766      C2767   1.400       .  A
C2766      H2771   1.083       .  S
C2767      C2768   1.402       .  A
C2768      H2772   1.083       .  S
C2773      C2774   1.402       .  A
C2773      C2778   1.401       .  A
C2773      H2779   1.083       .  S
C2774      C2775   1.404       .  A
C2775      C2776   1.392       .  A
C2775      H2780   1.084       .  S
C2776      C2777   1.404       .  A
C2776      H2781   1.083       .  S
C2777      C2778   1.409       .  A
C2778      H2782   1.083       .  S
C2783      C2784   1.401       .  A
C2783      C2788   1.396       .  A
C2783      H2789   1.083       .  S
C2784      C2785   1.413       .  A
C2785      C2786   1.398       .  A
C2785      H2790   1.083       .  S
C2786      C2787   1.398       .  A
C2786      H2791   1.083       .  S
C2787      C2788   1.408       .  A
C2788      H2792   1.084       .  S
C2793      C2794   1.406       .  A
C2793      C2798   1.400       .  A
C2793      H2799   1.083       .  S
C2794      C2795   1.406       .  A
C2795      C2796   1.395       .  A
C2795      H2800   1.083       .  S
C2796      C2797   1.402       .  A
C2796      H2801   1.083       .  S
C2797      C2798   1.403       .  A
C2798      H2802   1.083       .  S
C2803      C2804   1.399       .  A
C2803      C2808   1.396       .  A
C2803      H2809   1.084       .  S
C2804      C2805   1.404       .  A
C2805      C2806   1.404       .  A
C2805      H2810   1.083       .  S
C2806      C2807   1.406       .  A
C2806      H2811   1.083       .  S
C2807      C2808   1.407       .  A
C2808      H2812   1.083       .  S
C2813      C2814   1.405       .  A
C2813      C2818   1.396       .  A
C2813      H2819   1.084       .  S
C2814      C2815   1.397       .  A
C2815      C2816   1.398       .  A
C2815      H2820   1.083       .  S
C2816      C2817   1.411       .  A
C2816      H2821   1.083       .  S
C2817      C2818   1.402       .  A
C2818      H2822   1.083       .  S
C2823      C2824   1.412       .  A
C2823      C2828   1.402       .  A
C2823      H2829   1.084       .  S
C2824      C2825   1.399       .  A
C2825      C2826   1.401       .  A
C2825      H2830   1.083       .  S
C2826      C2827   1.412       .  A
C2826      H2831   1.084       .  S
C2827      C2828   1.399       .  A
C2828      H2832   1.083       .  S
C2833      C2834   1.406       .  A
C2833      C2838   1.402       .  A
C2833      H2839   1.083       .  S
C2834      C2835   1.405       .  A
C2835      C2836   1.397       .  A
C2835      H2840   1.083       .  S
C2836      C2837   1.405       .  A
C2836      H2841   1.083       .  S
C2837      C2838   1.406       .  A
C2838      H2842   1.083       .  S
C2843      C2844   1.398       .  A
C2843      C2848   1.395       .  A
C2843      H2849   1.084       .  S
C2845      C2846   1.403   1_554  A
C2845      H2850   1.083   1_554  S
C2846      C2847   1.405       .  A
C2846      H2851   1.083       .  S
C2848      H2852   1.083       .  S
C2853      C2854   1.404       .  A
C2853      C2858   1.404       .  A
C2853      H2859   1.083       .  S
C2855      C2856   1.398       .  A
C2855      H2860   1.083       .  S
C2856      C2857   1.402       .  A
C2856      H2861   1.083       .  S
C2858      H2862   1.083       .  S
C2863      C2864   1.403       .  A
C2863      C2868   1.394       .  A
C2863      H2869   1.084       .  S
C2864      C2865   1.400       .  A
C2865      C2866   1.399       .  A
C2865      H2870   1.083       .  S
C2866      C2867   1.409       .  A
C2866      H2871   1.083       .  S
C2867      C2868   1.404       .  A
C2868      H2872   1.083       .  S
C2873      C2874   1.407       .  A
C2873      C2878   1.395       .  A
C2873      H2879   1.083       .  S
C2874      C2875   1.407       .  A
C2875      C2876   1.399       .  A
C2875      H2880   1.083       .  S
C2876      C2877   1.402       .  A
C2876      H2881   1.084       .  S
C2877      C2878   1.401       .  A
C2878      H2882   1.084       .  S
C2883      C2884   1.415       .  A
C2883      C2888   1.406       .  A
C2883      H2889   1.083       .  S
C2884      C2885   1.402       .  A
C2885      C2886   1.402       .  A
C2885      H2890   1.083       .  S
C2886      C2887   1.415       .  A
C2886      H2891   1.083       .  S
C2887      C2888   1.403       .  A
C2888      H2892   1.083       .  S
C2893      C2894   1.405       .  A
C2893      C2898   1.400       .  A
C2893      H2899   1.083       .  S
C2894      C2895   1.407       .  A
C2895      C2896   1.400       .  A
C2895      H2900   1.083       .  S
C2896      C2897   1.405       .  A
C2896      H2901   1.083       .  S
C2897      C2898   1.408       .  A
C2898      H2902   1.083       .  S
C2903      C2904   1.400       .  A
C2903      C2908   1.398   1_655  A
C2903      H2909   1.083       .  S
C2904      C2905   1.408       .  A
C2905      C2906   1.395       .  A
C2905      H2910   1.083       .  S
C2906      C2907   1.399   1_655  A
C2906      H2911   1.083   1_655  S
C2907      C2908   1.409       .  A
C2908      H2912   1.083       .  S
C2913      C2914   1.399       .  A
C2913      C2918   1.399   1_565  A
C2913      H2919   1.083       .  S
C2914      C2915   1.410       .  A
C2915      C2916   1.399       .  A
C2915      H2920   1.083       .  S
C2916      C2917   1.400   1_565  A
C2916      H2921   1.083       .  S
C2917      C2918   1.411       .  A
C2918      H2922   1.083       .  S
C2923      C2924   1.401       .  A
C2923      C2928   1.390       .  A
C2923      H2929   1.084       .  S
C2924      C2925   1.399       .  A
C2925      C2926   1.393       .  A
C2925      H2930   1.083       .  S
C2926      C2927   1.405       .  A
C2926      H2931   1.083       .  S
C2927      C2928   1.403       .  A
C2928      H2932   1.083       .  S
C2933      C2934   1.403       .  A
C2933      C2938   1.400   1_455  A
C2933      H2939   1.083       .  S
C2934      C2935   1.411       .  A
C2935      C2936   1.403   1_455  A
C2935      H2940   1.083       .  S
C2936      C2937   1.401       .  A
C2936      H2941   1.083       .  S
C2937      C2938   1.406       .  A
C2938      H2942   1.083       .  S
C2943      C2944   1.413       .  A
C2943      C2948   1.397       .  A
C2943      H2949   1.083       .  S
C2944      C2945   1.401       .  A
C2945      C2946   1.400   1_565  A
C2945      H2950   1.083       .  S
C2946      C2947   1.412       .  A
C2946      H2951   1.083       .  S
C2947      C2948   1.399   1_545  A
C2948      H2952   1.083   1_565  S
C2953      C2958   1.399       .  A
C2953      H2959   1.083       .  S
C2955      C2956   1.398       .  A
C2955      H2960   1.083       .  S
C2956      C2957   1.398       .  A
C2956      H2961   1.084       .  S
C2957      C2958   1.409       .  A
C2958      H2962   1.084       .  S
C2963      C2964   1.407       .  A
C2963      C2968   1.390       .  A
C2963      H2969   1.084       .  S
C2964      C2965   1.402       .  A
C2965      C2966   1.403       .  A
C2965      H2970   1.083       .  S
C2966      C2967   1.411       .  A
C2966      H2971   1.083       .  S
C2967      C2968   1.401       .  A
C2968      H2972   1.083       .  S
C2973      C2974   1.402       .  A
C2973      C2978   1.390       .  A
C2973      H2979   1.083       .  S
C2974      C2975   1.403   1_556  A
C2975      C2976   1.397       .  A
C2976      C2977   1.405   1_554  A
C2977      C2978   1.403       .  A
C2978      H2982   1.083       .  S
C2983      C2984   1.401       .  A
C2983      C2988   1.393   1_455  A
C2983      H2989   1.083       .  S
C2984      C2985   1.410       .  A
C2985      C2986   1.400   1_455  A
C2985      H2990   1.083       .  S
C2986      C2987   1.402       .  A
C2986      H2991   1.083       .  S
C2987      C2988   1.409       .  A
C2988      H2992   1.083       .  S
C2993      C2994   1.402       .  A
C2993      C2998   1.394       .  A
C2993      H2999   1.084       .  S
C2994      C2995   1.410       .  A
C2995      C2996   1.413       .  A
C2995      H3000   1.083       .  S
C2996      C2997   1.407       .  A
C2996      H3001   1.083       .  S
C2997      C2998   1.406       .  A
C2998      H3002   1.084       .  S
C3003      C3004   1.409       .  A
C3003      C3008   1.401       .  A
C3003      H3009   1.083       .  S
C3004      C3005   1.405       .  A
C3005      C3006   1.397       .  A
C3005      H3010   1.083       .  S
C3006      C3007   1.405       .  A
C3006      H3011   1.083       .  S
C3007      C3008   1.403       .  A
C3008      H3012   1.083       .  S
C3013      C3014   1.404       .  A
C3013      C3018   1.408   1_655  A
C3013      H3019   1.083       .  S
C3014      C3015   1.409       .  A
C3015      C3016   1.400   1_655  A
C3015      H3020   1.083       .  S
C3016      C3017   1.400       .  A
C3016      H3021   1.083       .  S
C3017      C3018   1.409       .  A
C3018      H3022   1.083       .  S
C3023      C3024   1.396       .  A
C3023      C3028   1.383       .  A
C3023      H3029   1.084       .  S
C3024      C3025   1.407       .  A
C3025      C3026   1.406       .  A
C3025      H3030   1.083       .  S
C3026      C3027   1.405       .  A
C3026      H3031   1.083       .  S
C3027      C3028   1.408       .  A
C3028      H3032   1.084       .  S
C3033      C3034   1.414       .  A
C3033      C3038   1.391       .  A
C3033      H3039   1.083       .  S
C3034      C3035   1.398       .  A
C3035      C3036   1.397       .  A
C3035      H3040   1.083       .  S
C3036      C3037   1.408       .  A
C3036      H3041   1.084       .  S
C3037      C3038   1.392       .  A
C3038      H3042   1.084       .  S
C3043      C3044   1.414       .  A
C3043      C3048   1.400       .  A
C3043      H3049   1.083       .  S
C3044      C3045   1.402       .  A
C3045      C3046   1.406       .  A
C3045      H3050   1.083       .  S
C3046      C3047   1.415       .  A
C3046      H3051   1.083       .  S
C3047      C3048   1.401       .  A
C3048      H3052   1.083       .  S
C3053      C3054   1.405       .  A
C3053      C3058   1.400       .  A
C3053      H3059   1.083       .  S
C3054      C3055   1.404       .  A
C3055      C3056   1.395       .  A
C3055      H3060   1.083       .  S
C3056      C3057   1.405       .  A
C3056      H3061   1.083       .  S
C3057      C3058   1.405       .  A
C3058      H3062   1.083       .  S
C3063      C3064   1.413       .  A
C3063      C3068   1.399       .  A
C3063      H3069   1.083       .  S
C3064      C3065   1.401       .  A
C3065      C3066   1.400       .  A
C3065      H3070   1.083       .  S
C3066      C3067   1.412       .  A
C3066      H3071   1.083       .  S
C3067      C3068   1.400       .  A
C3068      H3072   1.083       .  S
C3073      C3074   1.404       .  A
C3073      C3078   1.395       .  A
C3073      H3079   1.083       .  S
C3074      C3075   1.404       .  A
C3075      C3076   1.398       .  A
C3075      H3080   1.083       .  S
C3076      C3077   1.405       .  A
C3076      H3081   1.083       .  S
C3077      C3078   1.404       .  A
C3078      H3082   1.083       .  S
C3083      C3084   1.412       .  A
C3083      C3088   1.398       .  A
C3083      H3089   1.083       .  S
C3084      C3085   1.401       .  A
C3085      C3086   1.398       .  A
C3085      H3090   1.083       .  S
C3086      C3087   1.411       .  A
C3086      H3091   1.083       .  S
C3087      C3088   1.401       .  A
C3088      H3092   1.083       .  S
C3093      C3094   1.401       .  A
C3093      C3098   1.397       .  A
C3093      H3099   1.084       .  S
C3094      C3095   1.403       .  A
C3095      C3096   1.399       .  A
C3095      H3100   1.084       .  S
C3096      C3097   1.406       .  A
C3096      H3101   1.083       .  S
C3097      C3098   1.407       .  A
C3098      H3102   1.083       .  S
C3103      C3104   1.404       .  A
C3103      C3108   1.397       .  A
C3104      C3105   1.400       .  A
C3105      C3106   1.398       .  A
C3105      H3110   1.083       .  S
C3106      C3107   1.408       .  A
C3106      H3111   1.083       .  S
C3107      C3108   1.404       .  A
C3108      H3112   1.083       .  S
C3113      C3114   1.404       .  A
C3113      C3118   1.395       .  A
C3113      H3119   1.083       .  S
C3114      C3115   1.405       .  A
C3115      C3116   1.399       .  A
C3115      H3120   1.083       .  S
C3116      C3117   1.404       .  A
C3116      H3121   1.083       .  S
C3117      C3118   1.405       .  A
C3118      H3122   1.083       .  S
C3123      C3124   1.410       .  A
C3123      C3128   1.397       .  A
C3123      H3129   1.083       .  S
C3124      C3125   1.401       .  A
C3125      C3126   1.402       .  A
C3125      H3130   1.083       .  S
C3126      C3127   1.411       .  A
C3126      H3131   1.083       .  S
C3127      C3128   1.400       .  A
C3128      H3132   1.083       .  S
C3133      C3134   1.402       .  A
C3133      C3138   1.393       .  A
C3133      H3139   1.084       .  S
C3134      C3135   1.405       .  A
C3135      C3136   1.405       .  A
C3135      H3140   1.083       .  S
C3136      C3137   1.407       .  A
C3136      H3141   1.083       .  S
C3137      C3138   1.404       .  A
C3138      H3142   1.083       .  S
C3143      C3144   1.400       .  A
C3143      C3148   1.403       .  A
C3143      H3149   1.083       .  S
C3144      C3145   1.411       .  A
C3145      C3146   1.403       .  A
C3145      H3150   1.084       .  S
C3146      C3147   1.400       .  A
C3146      H3151   1.083       .  S
C3147      C3148   1.411       .  A
C3148      H3152   1.083       .  S
C3153      C3154   1.405       .  A
C3153      C3158   1.395       .  A
C3153      H3159   1.083       .  S
C3154      C3155   1.405       .  A
C3155      C3156   1.400       .  A
C3156      C3157   1.405       .  A
C3157      C3158   1.403       .  A
C3158      H3162   1.083       .  S
C3163      C3168   1.395       .  A
C3163      H3169   1.083       .  S
C3164      C3165   1.405       .  A
C3165      C3166   1.403       .  A
C3165      H3170   1.083       .  S
C3166      H3171   1.083       .  S
C3167      C3168   1.397       .  A
C3168      H3172   1.084       .  S
C3173      C3174   1.401       .  A
C3173      H3179   1.083       .  S
C3174      C3175   1.412       .  A
C3175      C3176   1.399       .  A
C3175      H3180   1.083       .  S
C3176      H3181   1.083       .  S
C3177      C3178   1.412   1_556  A
C3178      H3182   1.083       .  S
C3183      C3184   1.401       .  A
C3183      C3188   1.398       .  A
C3183      H3189   1.083       .  S
C3184      C3185   1.403       .  A
C3185      C3186   1.398       .  A
C3185      H3190   1.084       .  S
C3186      C3187   1.406       .  A
C3186      H3191   1.083       .  S
C3187      C3188   1.407       .  A
C3188      H3192   1.083       .  S
C3193      C3194   1.408       .  A
C3193      C3198   1.397       .  A
C3193      H3199   1.083       .  S
C3194      C3195   1.405       .  A
C3195      C3196   1.398       .  A
C3195      H3200   1.083       .  S
C3196      C3197   1.404       .  A
C3196      H3201   1.084       .  S
C3197      C3198   1.400       .  A
C3198      H3202   1.084       .  S
C3203      C3204   1.402       .  A
C3203      C3208   1.405       .  A
C3203      H3209   1.083       .  S
C3204      C3205   1.413       .  A
C3205      C3206   1.404       .  A
C3205      H3210   1.082       .  S
C3206      C3207   1.399       .  A
C3206      H3211   1.083       .  S
C3207      C3208   1.410       .  A
C3208      H3212   1.083       .  S
C3213      C3214   1.403       .  A
C3213      C3218   1.401       .  A
C3213      H3219   1.083       .  S
C3214      C3215   1.405       .  A
C3215      C3216   1.402       .  A
C3215      H3220   1.083       .  S
C3216      C3217   1.404       .  A
C3216      H3221   1.083       .  S
C3217      C3218   1.406       .  A
C3218      H3222   1.083       .  S
C3223      C3224   1.403       .  A
C3223      C3228   1.394   1_565  A
C3223      H3229   1.084       .  S
C3224      C3225   1.405       .  A
C3225      C3226   1.405   1_565  A
C3225      H3230   1.083       .  S
C3226      C3227   1.406       .  A
C3226      H3231   1.083       .  S
C3227      C3228   1.403       .  A
C3228      H3232   1.084       .  S
C3233      C3234   1.400   1_455  A
C3233      C3238   1.398       .  A
C3233      H3239   1.083       .  S
C3234      C3235   1.410       .  A
C3235      C3236   1.401   1_655  A
C3235      H3240   1.083       .  S
C3236      C3237   1.401       .  A
C3236      H3241   1.083       .  S
C3237      C3238   1.409       .  A
C3238      H3242   1.083       .  S
C3243      C3244   1.404       .  A
C3243      C3248   1.390       .  A
C3243      H3249   1.083       .  S
C3244      C3245   1.400       .  A
C3245      C3246   1.390       .  A
C3245      H3250   1.083       .  S
C3246      C3247   1.403       .  A
C3246      H3251   1.084       .  S
C3247      C3248   1.399       .  A
C3248      H3252   1.083       .  S
C3253      C3254   1.404       .  A
C3253      C3258   1.406   1_545  A
C3253      H3259   1.083       .  S
C3254      C3255   1.405       .  A
C3255      C3256   1.397   1_545  A
C3255      H3260   1.084       .  S
C3256      C3257   1.405       .  A
C3256      H3261   1.083       .  S
C3257      C3258   1.409       .  A
C3258      H3262   1.083       .  S
C3263      C3264   1.400   1_455  A
C3263      C3268   1.393       .  A
C3263      H3269   1.083   1_455  S
C3264      C3265   1.411       .  A
C3265      C3266   1.405   1_655  A
C3265      H3270   1.083       .  S
C3266      C3267   1.404       .  A
C3266      H3271   1.083       .  S
C3267      C3268   1.411       .  A
C3268      H3272   1.083       .  S
C3273      C3278   1.395       .  A
C3273      H3279   1.083       .  S
C3275      C3276   1.401       .  A
C3276      C3277   1.406       .  A
C3276      H3281   1.083       .  S
C3277      C3278   1.399       .  A
C3278      H3282   1.084       .  S
C3283      C3284   1.410       .  A
C3283      C3288   1.400       .  A
C3283      H3289   1.083       .  S
C3284      C3285   1.403       .  A
C3285      C3286   1.391       .  A
C3285      H3290   1.083       .  S
C3286      C3287   1.405       .  A
C3286      H3291   1.084       .  S
C3287      C3288   1.401       .  A
C3288      H3292   1.083       .  S
C3293      H3299   1.083       .  S
C3294      C3295   1.401       .  A
C3295      C3296   1.397       .  A
C3295      H3300   1.083       .  S
C3296      C3297   1.404       .  A
C3296      H3301   1.083       .  S
C3297      C3298   1.403       .  A
C3303      C3304   1.406       .  A
C3303      C3308   1.405       .  A
C3303      H3309   1.083       .  S
C3304      C3305   1.407       .  A
C3305      C3306   1.393       .  A
C3305      H3310   1.083       .  S
C3306      C3307   1.399       .  A
C3306      H3311   1.084       .  S
C3307      C3308   1.405       .  A
C3308      H3312   1.083       .  S
C3313      C3314   1.406       .  A
C3313      C3318   1.403   1_655  A
C3313      H3319   1.083       .  S
C3314      C3315   1.395   1_655  A
C3315      C3316   1.393       .  A
C3315      H3320   1.084   1_455  S
C3316      C3317   1.412       .  A
C3316      H3321   1.083       .  S
C3317      C3318   1.404       .  A
C3318      H3322   1.083       .  S
C3323      C3324   1.414       .  A
C3323      C3328   1.405       .  A
C3323      H3329   1.083       .  S
C3324      C3325   1.402       .  A
C3325      C3326   1.400       .  A
C3325      H3330   1.083       .  S
C3326      C3327   1.413       .  A
C3326      H3331   1.083       .  S
C3327      C3328   1.402       .  A
C3328      H3332   1.083       .  S
C3333      C3334   1.404       .  A
C3333      C3338   1.397       .  A
C3333      H3339   1.083       .  S
C3334      C3335   1.406       .  A
C3335      C3336   1.400       .  A
C3335      H3340   1.083       .  S
C3336      C3337   1.405       .  A
C3336      H3341   1.083       .  S
C3337      C3338   1.406       .  A
C3338      H3342   1.083       .  S
C3343      C3344   1.410       .  A
C3343      C3348   1.399       .  A
C3343      H3349   1.083       .  S
C3344      C3345   1.404       .  A
C3345      C3346   1.403       .  A
C3345      H3350   1.083       .  S
C3346      C3347   1.411       .  A
C3346      H3351   1.083       .  S
C3347      C3348   1.403       .  A
C3348      H3352   1.083       .  S
C3353      C3354   1.400   1_455  A
C3353      C3358   1.398       .  A
C3353      H3359   1.083       .  S
C3354      C3355   1.410       .  A
C3355      C3356   1.401   1_655  A
C3355      H3360   1.083       .  S
C3356      C3357   1.401       .  A
C3356      H3361   1.083       .  S
C3357      C3358   1.410       .  A
C3358      H3362   1.083       .  S
C3363      C3364   1.409       .  A
C3363      C3368   1.397       .  A
C3363      H3369   1.083       .  S
C3364      C3365   1.404       .  A
C3365      C3366   1.397       .  A
C3365      H3370   1.083       .  S
C3366      C3367   1.404       .  A
C3366      H3371   1.084       .  S
C3367      C3368   1.399       .  A
C3368      H3372   1.084       .  S
C3373      C3374   1.407       .  A
C3373      C3378   1.397       .  A
C3373      H3379   1.083       .  S
C3374      C3375   1.407       .  A
C3375      C3376   1.399       .  A
C3375      H3380   1.083       .  S
C3376      C3377   1.403       .  A
C3376      H3381   1.084       .  S
C3377      C3378   1.401       .  A
C3378      H3382   1.084       .  S
C3383      C3384   1.409       .  A
C3383      C3388   1.410       .  A
C3383      H3389   1.083       .  S
C3384      C3385   1.406       .  A
C3385      C3386   1.400       .  A
C3385      H3390   1.083       .  S
C3386      C3387   1.407       .  A
C3386      H3391   1.083       .  S
C3387      C3388   1.408       .  A
C3388      H3392   1.083       .  S
