geometry optimzed in LAMMPS
_audit_creation_date              2020-11-30 
_audit_creation_method            'lammps2cif' 
_symmetry_space_group_name_H-M    'P1' 
_symmetry_Int_Tables_number       1 
_symmetry_cell_setting            triclinic 
loop_ 
_symmetry_equiv_pos_as_xyz 
  x,y,z 
_cell_length_a                    43.767729933597835 
_cell_length_b                    44.06110685910351 
_cell_length_c                    34.94732109243953 
_cell_angle_alpha                 90.51432347538095 
_cell_angle_beta                  91.23562520216993 
_cell_angle_gamma                 90.3520362126085 
loop_ 
_atom_site_label 
_atom_site_type_symbol 
_atom_site_fract_x 
_atom_site_fract_y 
_atom_site_fract_z 
_atom_site_charge 
O1          O  0.04321589  0.70691715  0.17495433    -0.79860
O2          O  0.16937841  0.77136195  0.14651824    -0.64550
O3          O  0.10487650  0.71795036  0.16690411    -1.11150
C4          C  0.10543605  0.78086864  0.27714246     1.07030
O5          O  0.18966382  0.75257050  0.19971473    -0.77760
O6          O  0.15658696  0.73635582  0.27067942    -0.65340
Ni7        Ni  0.07147876  0.71222709  0.13361327     1.34870
C8          C  0.14094405  0.71235618  0.26402558     0.85760
O9          O  0.14672322  0.72222329  0.11040235    -0.78300
O10         O  0.09873558  0.71597295  0.09166602    -0.88570
C11         C  0.19219424  0.76032313  0.16427496     0.85340
O12         O  0.06227702  0.75474802  0.13120894    -0.66770
O13         O  0.13152237  0.79090234  0.26689125    -0.86060
C14         C  0.07990466  0.77522704  0.11844761     0.86170
C15         C  0.12625215  0.70674720  0.09330401     1.07740
H16         H  0.11594333  0.78473109  0.19430047     0.39540
O17         O  0.12615276  0.76573038  0.19925397    -1.08720
O18         O  0.12970617  0.70952438  0.23133579    -0.65370
Ni19       Ni  0.09840007  0.73598504  0.21472629     1.26350
O20         O  0.10924576  0.77316978  0.12209766    -0.65600
O21         O  0.09302246  0.75631869  0.26373721    -0.77890
C22         C  0.04633210  0.70155788  0.21089918     0.85550
O23         O  0.07146995  0.70496557  0.22861360    -0.65070
Ni24       Ni  0.16010973  0.77110322  0.23461832     1.27450
Ni25       Ni  0.13581368  0.74584342  0.15345794     1.26060
H26         H  0.11406211  0.69820990  0.16977374     0.40090
O27         O  0.97851643  0.78588981  0.16964901    -0.79860
O28         O  0.84729989  0.76487295  0.13253684    -0.64550
O29         O  0.91746242  0.80402187  0.17171212    -1.11150
C30         C  0.90261023  0.73492129  0.26906965     1.07030
O31         O  0.82462410  0.78095191  0.18557919    -0.77760
O32         O  0.85864657  0.80411956  0.25146012    -0.65340
Ni33       Ni  0.95142844  0.81264590  0.14137883     1.34870
C34         C  0.88447653  0.81670530  0.25968879     0.85760
O35         O  0.88206130  0.80945928  0.10524430    -0.78300
O36         O  0.92424935  0.83869916  0.11359840    -0.88570
C37         C  0.82325330  0.77173564  0.15027908     0.85340
O38         O  0.94648106  0.78109639  0.10329880    -0.66770
O39         O  0.87433027  0.74280835  0.26661264    -0.86060
C40         C  0.93318483  0.75545811  0.10562438     0.86170
C41         C  0.89677645  0.83419356  0.10115698     1.07740
H42         H  0.88713069  0.73955321  0.18766828     0.39540
O43         O  0.88456731  0.76072784  0.19425065    -1.08720
O44         O  0.90885308  0.80625361  0.24711854    -0.65370
Ni45       Ni  0.92191758  0.77668701  0.21211906     1.26350
O46         O  0.90810701  0.75259281  0.12369664    -0.65600
O47         O  0.92415187  0.74762957  0.25108654    -0.77890
C48         C  0.97846380  0.78057943  0.20538066     0.85550
O49         O  0.95968575  0.79342981  0.22600447    -0.65070
Ni50       Ni  0.85072612  0.76400587  0.22684353     1.27450
Ni51       Ni  0.88346983  0.78402320  0.14932982     1.26060
H52         H  0.91040647  0.82321159  0.18165630     0.40090
O53         O  0.03034686  0.72581119  0.47206377    -0.79860
O54         O  0.02098392  0.59421998  0.48123282    -0.64550
O55         O  0.05203747  0.66853551  0.44958170    -1.11150
C56         C  0.97612240  0.66018386  0.35871847     1.07030
O57         O  0.02990297  0.57562227  0.42267393    -0.77760
O58         O  0.05308246  0.62068562  0.37061388    -0.65340
Ni59       Ni  0.06338428  0.69857713  0.48570126     1.34870
C60         C  0.06058038  0.64818049  0.36312695     0.85760
O61         O  0.06832399  0.62879985  0.00689998    -0.78300
O62         O  0.09670996  0.67097690  0.99881440    -0.88570
C63         C  0.02551979  0.57201236  0.45900178     0.85340
O64         O  0.03989721  0.68445578  0.02739655    -0.66770
O65         O  0.98966945  0.63456922  0.35238252    -0.86060
C66         C  0.01319370  0.67270791  0.02566031     0.86170
C67         C  0.09362881  0.64337006  0.00994963     1.07740
H68         H  0.98734866  0.63408651  0.43669455     0.39540
O69         O  0.00795521  0.63503380  0.42733212    -1.08720
O70         O  0.04363930  0.66971243  0.37300704    -0.65370
Ni71       Ni  0.01877376  0.67517054  0.41660972     1.26350
O72         O  0.00703880  0.65174005  0.50113839    -0.65600
O73         O  0.98480046  0.67892585  0.38455691    -0.77890
C74         C  0.01885151  0.72960514  0.43867899     0.85550
O75         O  0.02978911  0.71566746  0.41096081    -0.65070
Ni76       Ni  0.01225287  0.60672405  0.38727478     1.27450
Ni77       Ni  0.03666596  0.63179405  0.46765000     1.26060
H78         H  0.06997146  0.66384736  0.43519116     0.40090
O79         O  0.92795678  0.81193682  0.47183910    -0.79860
O80         O  0.00006070  0.93688599  0.48682432    -0.64550
O81         O  0.95154709  0.86852300  0.46265621    -1.11150
C82         C  0.02849352  0.85119927  0.37629829     1.07030
O83         O  0.99537376  0.95130153  0.42611646    -0.77760
O84         O  0.96573452  0.90792657  0.37492579    -0.65340
Ni85       Ni  0.93758934  0.84562943  0.50478189     1.34870
C86         C  0.95211373  0.88231124  0.36995398     0.85760
O87         O  0.94462662  0.91988955  0.00758829    -0.78300
O88         O  0.94410655  0.87850451  0.03941145    -0.88570
C89         C  0.99916702  0.95758384  0.46214380     0.85340
O90         O  0.97873800  0.83286993  0.51474596    -0.66770
O91         O  0.02281550  0.87921635  0.36849580    -0.86060
C92         C  0.00027144  0.85116149  0.02503383     0.86170
C93         C  0.93149178  0.90315420  0.03072747     1.07740
H94         H  0.02338423  0.88581958  0.45298012     0.39540
O95         O  0.00344266  0.88868714  0.44117973    -1.08720
O96         O  0.96091631  0.85913581  0.38782364    -0.65370
Ni97       Ni  0.98368007  0.85122746  0.43371143     1.26350
O98         O  0.99913167  0.87997904  0.51715722    -0.65600
O99         O  0.01639208  0.83733478  0.40411859    -0.77890
C100        C  0.94103839  0.80123012  0.44260327     0.85550
O101        O  0.96427969  0.81341260  0.42782272    -0.65070
Ni102      Ni  0.00707958  0.91390291  0.39759642     1.27450
Ni103      Ni  0.97572519  0.90297841  0.47649638     1.26060
H104        H  0.93441234  0.87464623  0.44673574     0.40090
O105        O  0.57059566  0.70977881  0.07121823    -0.79860
O106        O  0.68592703  0.74805809  0.08710610    -0.64550
O107        O  0.60640667  0.75264114  0.05203799    -1.11150
C108        C  0.62868209  0.69106043  0.45360761     1.07030
O109        O  0.70648488  0.75081233  0.02884658    -0.77760
O110        O  0.65651416  0.76985456  0.48160205    -0.65340
Ni111      Ni  0.57597681  0.75096081  0.08733955     1.34870
C112        C  0.62829931  0.77208051  0.47190709     0.85760
O113        O  0.63782176  0.78311781  0.10809443    -0.78300
O114        O  0.58680528  0.79133747  0.10132445    -0.88570
C115        C  0.70860189  0.75234800  0.06594756     0.85340
O116        O  0.59646621  0.73883149  0.13238795    -0.66770
O117        O  0.65072529  0.71061294  0.45100508    -0.86060
C118        C  0.61537065  0.71774043  0.13239737     0.86170
C119        C  0.61396156  0.80010393  0.11110499     1.07740
H120        H  0.65748550  0.70168324  0.04239493     0.39540
O121        O  0.65111715  0.72085996  0.03174807    -1.08720
O122        O  0.60967927  0.74993439  0.97722328    -0.65370
Ni123      Ni  0.60956620  0.71927843  0.01795637     1.26350
O124        O  0.63591902  0.71704148  0.10697200    -0.65600
O125        O  0.61539060  0.68680204  0.48463620    -0.77890
C126        C  0.55422500  0.70963361  0.04127843     0.85550
O127        O  0.56675346  0.71533062  0.00991370    -0.65070
Ni128      Ni  0.67700973  0.73160079  0.99125567     1.27450
Ni129      Ni  0.64546173  0.75050583  0.07119389     1.26060
H130        H  0.60448081  0.77159268  0.03887142     0.40090
O131        O  0.43109340  0.74515250  0.10675575    -0.79860
O132        O  0.32270471  0.74883736  0.10955028    -0.64550
O133        O  0.40464515  0.72781022  0.09796582    -1.11150
C134        C  0.39772930  0.79136919  0.49191430     1.07030
O135        O  0.31033288  0.73715836  0.04860197    -0.77760
O136        O  0.36446901  0.71455538  0.01151277    -0.65340
Ni137      Ni  0.42926886  0.72124477  0.14842374     1.34870
C138        C  0.39342409  0.71148700  0.00772283     0.85760
O139        O  0.35553018  0.70453071  0.13919531    -0.78300
O140        O  0.39225343  0.71983434  0.17469870    -0.88570
C141        C  0.30312830  0.74184794  0.08391190     0.85340
O142        O  0.42431356  0.76145510  0.16549235    -0.66770
O143        O  0.37482255  0.77358767  0.48442803    -0.86060
C144        C  0.40179855  0.77937368  0.15955161     0.86170
C145        C  0.37391987  0.69920969  0.16587417     1.07740
H146        H  0.36085551  0.78533102  0.07184255     0.39540
O147        O  0.36658556  0.76510827  0.06393229    -1.08720
O148        O  0.41147544  0.73239906  0.01983708    -0.65370
Ni149      Ni  0.40830228  0.76288196  0.06030287     1.26350
O150        O  0.37635507  0.77154803  0.14151506    -0.65600
O151        O  0.40845316  0.79487803  0.02543086    -0.77890
C152        C  0.45534122  0.75276103  0.09057597     0.85550
O153        O  0.45088735  0.76470440  0.05920679    -0.65070
Ni154      Ni  0.34442845  0.75409870  0.01820872     1.27450
Ni155      Ni  0.36297660  0.73771079  0.10483353     1.26060
H156        H  0.40295233  0.70815401  0.08428121     0.40090
O157        O  0.50800507  0.55380847  0.32307687    -0.79860
O158        O  0.46154528  0.68523261  0.35953660    -0.64550
O159        O  0.47739333  0.60701611  0.32450401    -1.11150
C160        C  0.53942400  0.66260950  0.23646285     1.07030
O161        O  0.44895670  0.69787293  0.30094106    -0.77760
O162        O  0.46396591  0.66903643  0.23665772    -0.65340
Ni163      Ni  0.49169964  0.58073396  0.36381726     1.34870
C164        C  0.45590895  0.64144267  0.23470335     0.85760
O165        O  0.44074508  0.63227453  0.37705895    -0.78300
O166        O  0.47353516  0.60405493  0.40840528    -0.88570
C167        C  0.44863608  0.70326819  0.33684791     0.85340
O168        O  0.52901862  0.60383632  0.36793112    -0.66770
O169        O  0.52399359  0.68593448  0.24632169    -0.86060
C170        C  0.52961375  0.63170932  0.37811597     0.86170
C171        C  0.45026403  0.62204886  0.40828640     1.07740
H172        H  0.51726699  0.66571559  0.31798797     0.39540
O173        O  0.49834518  0.65906380  0.30597031    -1.08720
O174        O  0.46995896  0.62029879  0.25174653    -0.65370
Ni175      Ni  0.50518107  0.62015392  0.28565120     1.26350
O176        O  0.50485266  0.64716134  0.37895083    -0.65600
O177        O  0.53280803  0.63536761  0.24668334    -0.77890
C178        C  0.51241263  0.55541076  0.28655356     0.85550
O179        O  0.51169471  0.58021711  0.26829992    -0.65070
Ni180      Ni  0.48678866  0.69133368  0.27402074     1.27450
Ni181      Ni  0.46991513  0.64615660  0.34252037     1.26060
H182        H  0.45879726  0.59851331  0.31337469     0.40090
O183        O  0.51318874  0.78483753  0.27215116    -0.79860
O184        O  0.52309761  0.92007847  0.27011751    -0.64550
O185        O  0.54561477  0.83934783  0.28435364    -1.11150
C186        C  0.48314281  0.84892230  0.39231724     1.07030
O187        O  0.53822020  0.93195835  0.33006173    -0.77760
O188        O  0.55130472  0.88629761  0.38712071    -0.65340
Ni189      Ni  0.54218134  0.80940308  0.24521468     1.34870
C190        C  0.56418329  0.86035220  0.38420575     0.85760
O191        O  0.55860088  0.88232422  0.22992833    -0.78300
O192        O  0.57028717  0.83320044  0.21744102    -0.88570
C193        C  0.53171615  0.93940815  0.29518435     0.85340
O194        O  0.50836721  0.82527639  0.21622185    -0.66770
O195        O  0.48873560  0.87756700  0.39205863    -0.86060
C196        C  0.49009586  0.84687110  0.22272646     0.86170
C197        C  0.57394957  0.86178138  0.21289252     1.07740
H198        H  0.48903181  0.87524512  0.31287736     0.39540
O199        O  0.51050356  0.87501919  0.31989122    -1.08720
O200        O  0.55592592  0.84073611  0.35962768    -0.65370
Ni201      Ni  0.52124268  0.83438167  0.32723433     1.26350
O202        O  0.49682989  0.86877348  0.24549905    -0.65600
O203        O  0.49570051  0.82987610  0.37012305    -0.77890
C204        C  0.51289207  0.78039785  0.30800833     0.85550
O205        O  0.53185687  0.79376131  0.32947663    -0.65070
Ni206      Ni  0.51500034  0.90310170  0.36106684     1.27450
Ni207      Ni  0.53384598  0.87935311  0.27489482     1.26060
H208        H  0.56687525  0.83988688  0.29241437     0.40090
O209        O  0.71913464  0.23932394  0.46439301    -0.79860
O210        O  0.58359260  0.19681370  0.48469162    -0.64550
O211        O  0.66414294  0.21341836  0.45884792    -1.11150
C212        C  0.61132310  0.27709515  0.36861581     1.07030
O213        O  0.57805590  0.18330832  0.42499793    -0.77760
O214        O  0.60819738  0.20119587  0.36502761    -0.65340
Ni215      Ni  0.68960353  0.22362283  0.50172723     1.34870
C216        C  0.63608039  0.19415158  0.36701495     0.85760
O217        O  0.63655255  0.17535592  0.50525471    -0.78300
O218        O  0.66301419  0.20531250  0.04290976    -0.88570
C219        C  0.56848786  0.18273632  0.45899946     0.85340
O220        O  0.66899284  0.26155029  0.50503027    -0.66770
O221        O  0.58859481  0.25929444  0.37402232    -0.86060
C222        C  0.64061354  0.26375583  0.51188064     0.86170
C223        C  0.64444220  0.18259777  0.03842473     1.07740
H224        H  0.60493856  0.25296292  0.44763364     0.39540
O225        O  0.61298720  0.23490719  0.43583719    -1.08720
O226        O  0.65597538  0.20964214  0.38534568    -0.65370
Ni227      Ni  0.65310869  0.24318446  0.42077489     1.26350
O228        O  0.62297626  0.24017438  0.50967375    -0.65600
O229        O  0.63869868  0.27219965  0.38186585    -0.77890
C230        C  0.71892723  0.24725846  0.42874461     0.85550
O231        O  0.69440532  0.25113948  0.40904383    -0.65070
Ni232      Ni  0.58329831  0.22174109  0.39984422     1.27450
Ni233      Ni  0.62407309  0.20591620  0.47230857     1.26060
H234        H  0.67233332  0.19524299  0.44739818     0.40090
O235        O  0.48392634  0.25537081  0.39966114    -0.79860
O236        O  0.35037658  0.27637232  0.39246090    -0.64550
O237        O  0.43274116  0.29175780  0.41728903    -1.11150
C238        C  0.41332581  0.22253086  0.01390401     1.07030
O239        O  0.33711012  0.28966862  0.45187994    -0.77760
O240        O  0.38608692  0.30211270  0.50760929    -0.65340
Ni241      Ni  0.46306235  0.29065451  0.37932815     1.34870
C242        C  0.41503069  0.30577893  0.51215424     0.85760
O243        O  0.39342317  0.30945780  0.35768118    -0.78300
O244        O  0.44280187  0.32456097  0.35718699    -0.88570
C245        C  0.33025405  0.28433835  0.41613767     0.85340
O246        O  0.44306869  0.26409784  0.34291173    -0.66770
O247        O  0.38877311  0.23818665  0.01873024    -0.86060
C248        C  0.42312997  0.24388583  0.34927139     0.86170
C249        C  0.41514177  0.32572881  0.34477574     1.07740
H250        H  0.38704233  0.23755840  0.43673298     0.39540
O251        O  0.39163498  0.25808668  0.44508249    -1.08720
O252        O  0.43384007  0.28985163  0.49427171    -0.65370
Ni253      Ni  0.43375065  0.26104481  0.45400398     1.26350
O254        O  0.40197996  0.24795060  0.37307650    -0.65600
O255        O  0.43309287  0.22913697  0.48920354    -0.77890
C256        C  0.48826135  0.24905641  0.43476174     0.85550
O257        O  0.47583338  0.26477108  0.45971427    -0.65070
Ni258      Ni  0.36502895  0.26598824  0.48556359     1.27450
Ni259      Ni  0.39190181  0.28400182  0.40233631     1.26060
H260        H  0.43375807  0.31144064  0.42969356     0.40090
O261        O  0.51256116  0.21197532  0.22567727    -0.79860
O262        O  0.51758341  0.07853635  0.24675260    -0.64550
O263        O  0.53500373  0.15723386  0.21381382    -1.11150
C264        C  0.46370260  0.13782545  0.11846772     1.07030
O265        O  0.52217023  0.05896508  0.18769148    -0.77760
O266        O  0.54282779  0.10567663  0.13990421    -0.65340
Ni267      Ni  0.54328377  0.18924970  0.24936303     1.34870
C268        C  0.54778045  0.13336225  0.13136655     0.85760
O269        O  0.55925076  0.11891061  0.27111840    -0.78300
O270        O  0.57565686  0.16721394  0.27148598    -0.88570
C271        C  0.52106657  0.05609613  0.22443856     0.85340
O272        O  0.51516754  0.17662511  0.28713874    -0.66770
O273        O  0.48137368  0.11471382  0.11398707    -0.86060
C274        C  0.49306542  0.15798745  0.28346105     0.86170
C275        C  0.57941330  0.13927794  0.27852042     1.07740
H276        H  0.47681753  0.11194466  0.20323939     0.39540
O277        O  0.49665816  0.11622493  0.19283973    -1.08720
O278        O  0.52771433  0.15359569  0.13795063    -0.65370
Ni279      Ni  0.49912594  0.15724107  0.18019274     1.26350
O280        O  0.49502293  0.13315076  0.26476768    -0.65600
O281        O  0.46462342  0.15374559  0.14857983    -0.77890
C282        C  0.51590491  0.21500035  0.19019117     0.85550
O283        O  0.49926819  0.19910607  0.16864101    -0.65070
Ni284      Ni  0.50318368  0.08858795  0.15206163     1.27450
Ni285      Ni  0.52703058  0.11800086  0.23218813     1.26060
H286        H  0.55338606  0.15545567  0.19945598     0.40090
O287        O  0.56464958  0.29678331  0.18861540    -0.79860
O288        O  0.53109264  0.42148884  0.21298019    -0.64550
O289        O  0.52716491  0.34369785  0.17134405    -1.11150
C290        C  0.59213934  0.36957979  0.08168292     1.07030
O291        O  0.53479992  0.44585950  0.15678409    -0.77760
O292        O  0.51266895  0.39806791  0.10611803    -0.65340
Ni293      Ni  0.52393169  0.30954541  0.20115696     1.34870
C294        C  0.51047348  0.37046096  0.09453428     0.85760
O295        O  0.49483382  0.37316842  0.22615982    -0.78300
O296        O  0.48416076  0.32358405  0.21491360    -0.88570
C297        C  0.53163114  0.44577036  0.19372618     0.85340
O298        O  0.53962970  0.32478152  0.24828600    -0.66770
O299        O  0.57260853  0.39139465  0.07785251    -0.86060
C300        C  0.55763086  0.34675174  0.25501010     0.86170
C301        C  0.47706050  0.34996818  0.22775718     1.07740
H302        H  0.57944116  0.39504179  0.17231066     0.39540
O303        O  0.56065726  0.38945459  0.15891882    -1.08720
O304        O  0.53337703  0.35278494  0.09833916    -0.65370
Ni305      Ni  0.56210663  0.34938268  0.14188778     1.26350
O306        O  0.55876376  0.36988309  0.23318821    -0.65600
O307        O  0.59673307  0.35782512  0.11374939    -0.77890
C308        C  0.57343511  0.29125665  0.15465942     0.85550
O309        O  0.56563626  0.30849865  0.12775340    -0.65070
Ni310      Ni  0.55225121  0.41697970  0.11846398     1.27450
Ni311      Ni  0.52865671  0.38186463  0.19365233     1.26060
H312        H  0.50862904  0.34346097  0.15620379     0.40090
O313        O  0.05749720  0.33025726  0.32843168    -0.79860
O314        O  0.18663888  0.26833749  0.36484825    -0.64550
O315        O  0.11887628  0.31655126  0.33788213    -1.11150
C316        C  0.11883277  0.24684397  0.23490367     1.07030
O317        O  0.20431170  0.28465040  0.30924327    -0.77760
O318        O  0.16818524  0.29639471  0.23611956    -0.65340
Ni319      Ni  0.08586874  0.32263779  0.37022390     1.34870
C320        C  0.15100032  0.31933039  0.24080484     0.85760
O321        O  0.16070230  0.31748634  0.39740376    -0.78300
O322        O  0.11287706  0.31729177  0.41285435    -0.88570
C323        C  0.20893988  0.27736698  0.34478933     0.85340
O324        O  0.07815987  0.28000505  0.36733702    -0.66770
O325        O  0.14644595  0.24034906  0.24406885    -0.86060
C326        C  0.09442177  0.26032033  0.38472730     0.86170
C327        C  0.13854386  0.33061650  0.41290960     1.07740
H328        H  0.13300602  0.24887826  0.31633423     0.39540
O329        O  0.14177298  0.26837807  0.31020233    -1.08720
O330        O  0.14026435  0.32246899  0.27296170    -0.65370
Ni331      Ni  0.11150466  0.29486543  0.29226910     1.26350
O332        O  0.12409459  0.26274870  0.38541574    -0.65600
O333        O  0.10508040  0.27083549  0.24621377    -0.77890
C334        C  0.05952170  0.33195256  0.29197296     0.85550
O335        O  0.08257870  0.32280977  0.27433440    -0.65070
Ni336      Ni  0.17465358  0.26354231  0.27501615     1.27450
Ni337      Ni  0.15097449  0.29094793  0.35495869     1.26060
H338        H  0.12816768  0.33584037  0.33273950     0.40090
O339        O  0.98892111  0.25391359  0.33301007    -0.79860
O340        O  0.85705403  0.25411560  0.36254868    -0.64550
O341        O  0.93120528  0.22619530  0.32455925    -1.11150
C342        C  0.91270284  0.29264552  0.22658072     1.07030
O343        O  0.83313472  0.24571411  0.30619853    -0.77760
O344        O  0.87140387  0.22091144  0.24803281    -0.65340
Ni345      Ni  0.96607717  0.22147107  0.35648727     1.34870
C346        C  0.89788361  0.21148090  0.23875532     0.85760
O347        O  0.89651447  0.21060932  0.38537171    -0.78300
O348        O  0.94313174  0.18959950  0.37877446    -0.88570
C349        C  0.83264480  0.25003776  0.34288701     0.85340
O350        O  0.95644590  0.24872232  0.39773514    -0.66770
O351        O  0.88536267  0.28152243  0.22679954    -0.86060
C352        C  0.93877107  0.27144385  0.39869913     0.86170
C353        C  0.91485603  0.18810401  0.38756027     1.07740
H354        H  0.89458497  0.28771675  0.31182279     0.39540
O355        O  0.89397666  0.26682258  0.30316101    -1.08720
O356        O  0.92186924  0.22566933  0.24883744    -0.65370
Ni357      Ni  0.93301392  0.25526054  0.28681514     1.26350
O358        O  0.91488666  0.27259662  0.37694629    -0.65600
O359        O  0.93362011  0.28539381  0.25017229    -0.77890
C360        C  0.98958148  0.25850651  0.29706065     0.85550
O361        O  0.97252909  0.24344098  0.27502750    -0.65070
Ni362      Ni  0.86115131  0.26175255  0.26697195     1.27450
Ni363      Ni  0.89495792  0.24024956  0.34544781     1.26060
H364        H  0.92689428  0.20666710  0.31283094     0.40090
O365        O  0.98992503  0.22530085  0.02543985    -0.79860
O366        O  0.01444575  0.09718129  0.01534620    -0.64550
O367        O  0.97243098  0.16652875  0.04454686    -1.11150
C368        C  0.04371850  0.16861598  0.14281666     1.07030
O369        O  0.00306730  0.07875667  0.07277128    -0.77760
O370        O  0.97698552  0.11800644  0.12934053    -0.65340
Ni371      Ni  0.95975936  0.19516837  0.00839268     1.34870
C372        C  0.96461662  0.14379924  0.13554037     0.85760
O373        O  0.96406247  0.12459812  0.48641941    -0.78300
O374        O  0.93155910  0.16402488  0.49175558    -0.88570
C375        C  0.00950979  0.07486295  0.03701863     0.85340
O376        O  0.98562140  0.18397428  0.96686471    -0.66770
O377        O  0.03658874  0.14024590  0.14561743    -0.86060
C378        C  0.01354755  0.17685044  0.47007525     0.86170
C379        C  0.93757572  0.13651666  0.48170437     1.07740
H380        H  0.04010881  0.14269282  0.06231167     0.39540
O381        O  0.01925338  0.13997074  0.07023997    -1.08720
O382        O  0.97497353  0.16766850  0.12101966    -0.65370
Ni383      Ni  0.00201164  0.17764710  0.08119480     1.26350
O384        O  0.02140687  0.15669049  0.99472527    -0.65600
O385        O  0.03259078  0.18629171  0.11771791    -0.77890
C386        C  0.99782476  0.23021545  0.06029895     0.85550
O387        O  0.98488089  0.21587870  0.08603183    -0.65070
Ni388      Ni  0.01807701  0.11058935  0.10924671     1.27450
Ni389      Ni  0.99335775  0.13260484  0.02728791     1.26060
H390        H  0.95441207  0.15941313  0.05728381     0.40090
O391        O  0.08893525  0.31440750  0.03663739    -0.79860
O392        O  0.02047675  0.43988232  0.02080787    -0.64550
O393        O  0.06681947  0.37093403  0.04339303    -1.11150
C394        C  0.98968757  0.35954507  0.12977590     1.07030
O395        O  0.03329341  0.45497025  0.07994048    -0.77760
O396        O  0.06115741  0.40850665  0.12868090    -0.65340
Ni397      Ni  0.07985748  0.34680702  0.00196295     1.34870
C398        C  0.07099156  0.38135892  0.13352853     0.85760
O399        O  0.07371398  0.42080365  0.49666229    -0.78300
O400        O  0.07385519  0.37810452  0.46536712    -0.88570
C401        C  0.02529000  0.46100920  0.04481635     0.85340
O402        O  0.03829631  0.33460176  0.99461245    -0.66770
O403        O  0.00058004  0.38602675  0.13947373    -0.86060
C404        C  0.01609078  0.35238941  0.48642028     0.86170
C405        C  0.08486006  0.40434495  0.47147898     1.07740
H406        H  0.99630376  0.39275989  0.05674358     0.39540
O407        O  0.01705379  0.39370878  0.06677997    -1.08720
O408        O  0.05691476  0.35933548  0.11803912    -0.65370
Ni409      Ni  0.03325947  0.35512069  0.07174348     1.26350
O410        O  0.01814285  0.38155979  0.99164579    -0.65600
O411        O  0.99942615  0.34412985  0.10134783    -0.77890
C412        C  0.07313810  0.30376548  0.06356041     0.85550
O413        O  0.04838300  0.31564222  0.07432029    -0.65070
Ni414      Ni  0.01925886  0.41915702  0.11024829     1.27450
Ni415      Ni  0.04379184  0.40563253  0.02991778     1.26060
H416        H  0.08417531  0.37683415  0.05933491     0.40090
C417        C  0.05294421  0.23691894  0.04580104     0.24630
C418        C  0.02818841  0.24245139  0.06996945    -0.23480
C419        C  0.03481760  0.25521311  0.10643165     0.19530
C420        C  0.06372624  0.26825807  0.11325209     0.24570
C421        C  0.08106141  0.27445552  0.08070983    -0.23430
C422        C  0.08070970  0.25173593  0.05281162     0.19470
F423        F  0.10297837  0.25033847  0.02644800    -0.13380
F424        F  0.05063232  0.21699918  0.01660344    -0.15750
F425        F  0.06905708  0.28424031  0.14608409    -0.15750
F426        F  0.01329238  0.25676382  0.13378338    -0.13380
C427        C  0.91406437  0.16794159  0.14860049     0.24630
C428        C  0.93804880  0.14882774  0.16136500    -0.23480
C429        C  0.94160582  0.14461923  0.20104074     0.19530
C430        C  0.92451119  0.16202356  0.22705849     0.24570
C431        C  0.90326614  0.18399449  0.21414422    -0.23430
C432        C  0.89692080  0.18525062  0.17460507     0.19470
F433        F  0.87716111  0.20631090  0.16076289    -0.13380
F434        F  0.90973816  0.17271252  0.11054340    -0.15750
F435        F  0.93133518  0.15994806  0.26501315    -0.15750
F436        F  0.96450729  0.12685919  0.21475194    -0.13380
C437        C  0.88208072  0.15730592  0.43062211     0.24630
C438        C  0.90396177  0.15885232  0.40173074    -0.23480
C439        C  0.92141209  0.13264450  0.39420999     0.19530
C440        C  0.92475543  0.11122139  0.42315736     0.24570
C441        C  0.91388545  0.11972435  0.45902795    -0.23430
C442        C  0.88550455  0.13455608  0.45812070     0.19470
F443        F  0.86870972  0.13589333  0.49026024    -0.13380
F444        F  0.86188036  0.18002492  0.43631029    -0.15750
F445        F  0.94664502  0.08968088  0.42024804    -0.15750
F446        F  0.93898814  0.13062625  0.36273280    -0.13380
C447        C  0.92619846  0.30602683  0.16018241     0.24630
C448        C  0.92264099  0.31487389  0.19834181    -0.23480
C449        C  0.93832789  0.34080362  0.21243423     0.19530
C450        C  0.95940244  0.35596811  0.18995861     0.24570
C451        C  0.96502140  0.34568528  0.15258761    -0.23430
C452        C  0.94705414  0.32139684  0.13732850     0.19470
F453        F  0.95047231  0.31159835  0.10072715    -0.13860
F454        F  0.91181957  0.28074774  0.14621291    -0.15750
F455        F  0.97582237  0.37925253  0.20593237    -0.15750
F456        F  0.93549914  0.34953290  0.24957781    -0.13380
C457        C  0.95885293  0.28935926  0.46300555     0.24630
C458        C  0.94812373  0.29686310  0.42606672    -0.23480
C459        C  0.95350557  0.32690676  0.41375014     0.19530
C460        C  0.97384617  0.34656874  0.43456431     0.24570
C461        C  0.98805744  0.33703010  0.46902872    -0.23430
C462        C  0.97856124  0.30893852  0.48401833     0.19470
F463        F  0.98981968  0.29960054  0.51843415    -0.13380
F464        F  0.95121705  0.26216231  0.47813061    -0.15750
F465        F  0.98141211  0.37380674  0.41948888    -0.15750
F466        F  0.94021253  0.33685399  0.38085348    -0.13380
C467        C  0.11734132  0.34810394  0.14566135     0.24630
C468        C  0.09878318  0.37261827  0.15775302    -0.23480
C469        C  0.10332598  0.38304987  0.19552772     0.19530
C470        C  0.12341007  0.36775261  0.22108924     0.24570
C471        C  0.13910244  0.34083773  0.21013758    -0.23430
C472        C  0.13672203  0.33221458  0.17139861     0.19470
F473        F  0.15116856  0.30694643  0.15889920    -0.13380
F474        F  0.11562757  0.33843119  0.10880519    -0.15750
F475        F  0.12568765  0.37818605  0.25773001    -0.15750
F476        F  0.08641689  0.40643632  0.20883162    -0.13380
C477        C  0.15111470  0.37350416  0.45671914     0.24630
C478        C  0.13987148  0.36325152  0.42104202    -0.23480
C479        C  0.12227979  0.38336590  0.39820078     0.19530
C480        C  0.11146688  0.41008846  0.41411199     0.24570
C481        C  0.11337219  0.41292049  0.45366617    -0.23430
C482        C  0.13877884  0.39994555  0.47244727     0.19470
F483        F  0.14463191  0.40660552  0.50988917    -0.13380
F484        F  0.16958008  0.35567906  0.47851866    -0.15750
F485        F  0.09010072  0.42618229  0.39431056    -0.15750
F486        F  0.11078331  0.37548960  0.36339640    -0.13380
C487        C  0.04714184  0.24565479  0.41961316     0.24630
C488        C  0.07630971  0.23691419  0.40714770    -0.23480
C489        C  0.08561825  0.20692331  0.41610431     0.19530
C490        C  0.06583219  0.18657091  0.43601667     0.24570
C491        C  0.03607592  0.19554818  0.44678796    -0.23430
C492        C  0.02772314  0.22563394  0.43812173     0.19470
F493        F  0.00093606  0.23701403  0.45008751    -0.13380
F494        F  0.03720024  0.27461772  0.41523791    -0.15750
F495        F  0.07566013  0.15818945  0.44427140    -0.15750
F496        F  0.11346385  0.19712136  0.40523326    -0.13380
C497        C  0.07779216  0.20804116  0.22910857     0.24630
C498        C  0.10134885  0.22465904  0.21203014    -0.23480
C499        C  0.10838857  0.21926456  0.17378363     0.19530
C500        C  0.09084790  0.19867054  0.15207726     0.24570
C501        C  0.06640561  0.18288626  0.16859570    -0.23430
C502        C  0.06040614  0.18709482  0.20746564     0.19470
F503        F  0.03652659  0.17260212  0.22363743    -0.13380
F504        F  0.07139629  0.21253052  0.26658556    -0.15750
F505        F  0.09656127  0.19530368  0.11422303    -0.15750
F506        F  0.13113773  0.23507990  0.15702703    -0.13380
C507        C  0.02885601  0.31726200  0.23828911     0.24630
C508        C  0.03190081  0.33864263  0.26840834    -0.23480
C509        C  0.00591562  0.34148454  0.29069361     0.19530
C510        C  0.99204719  0.31427985  0.30119703     0.24570
C511        C  0.00046689  0.28722829  0.28264522    -0.23430
C512        C  0.01575849  0.28926468  0.24771555     0.19470
F513        F  0.02008021  0.26441490  0.22525361    -0.13380
F514        F  0.04720505  0.31901106  0.20757303    -0.15750
F515        F  0.97187382  0.31389820  0.32985687    -0.15750
F516        F  0.00155724  0.36695143  0.31190455    -0.13380
C517        C  0.57095805  0.23219520  0.19713333     0.24630
C518        C  0.54463738  0.22565203  0.17405108    -0.23480
C519        C  0.54671457  0.22929061  0.13379368     0.19530
C520        C  0.57130503  0.24569704  0.11957091     0.24570
C521        C  0.58869177  0.26228040  0.14650992    -0.23430
C522        C  0.59567284  0.24685655  0.18035614     0.19470
F523        F  0.61949789  0.25648976  0.20288163    -0.13380
F524        F  0.57187774  0.22792280  0.23543754    -0.15750
F525        F  0.57109373  0.25366656  0.08214216    -0.15750
F526        F  0.52403432  0.22011739  0.10909046    -0.13380
C527        C  0.24395620  0.27639680  0.40381227     0.24630
C528        C  0.23967364  0.28163686  0.36405133    -0.23480
C529        C  0.26509079  0.29126483  0.34325111     0.19530
C530        C  0.29397713  0.29412112  0.36102727     0.24570
C531        C  0.29851880  0.28734043  0.40019702    -0.23430
C532        C  0.27298992  0.27925343  0.42156668     0.19470
F533        F  0.27634933  0.27239534  0.45921073    -0.13380
F534        F  0.22021580  0.26780472  0.42570348    -0.15750
F535        F  0.31781100  0.30301856  0.33942710    -0.15750
F536        F  0.26234929  0.29733689  0.30531892    -0.13380
C537        C  0.43606424  0.35730897  0.03439931     0.24630
C538        C  0.43003015  0.32631509  0.04138229    -0.23480
C539        C  0.44862499  0.31167816  0.06875857     0.19530
C540        C  0.47411382  0.32615628  0.08567319     0.24570
C541        C  0.48108676  0.35688009  0.07815283    -0.23430
C542        C  0.46081835  0.37268442  0.05344603     0.19470
F543        F  0.46651503  0.40216049  0.04504633    -0.13380
F544        F  0.41962972  0.37200431  0.00699924    -0.15750
F545        F  0.49299421  0.30902644  0.10780247    -0.15750
F546        F  0.44431481  0.28164726  0.07560692    -0.13380
C547        C  0.42587471  0.32992789  0.24607088     0.24630
C548        C  0.44823025  0.35302956  0.24860035    -0.23480
C549        C  0.44552174  0.37567997  0.27705834     0.19530
C550        C  0.42614491  0.37079684  0.30758575     0.24570
C551        C  0.41028812  0.34314593  0.30983633    -0.23430
C552        C  0.40623208  0.32549356  0.27648232     0.19470
F553        F  0.38886318  0.29985028  0.27695928    -0.13380
F554        F  0.42561849  0.30942125  0.21681093    -0.15750
F555        F  0.42833014  0.38941062  0.33870942    -0.15750
F556        F  0.46476752  0.39996952  0.27877226    -0.13380
C557        C  0.40745057  0.19114045  0.07357853     0.24630
C558        C  0.42045620  0.19540072  0.03771264    -0.23480
C559        C  0.44216227  0.17389408  0.02508494     0.19530
C560        C  0.45416191  0.15204063  0.05002844     0.24570
C561        C  0.44383021  0.15038927  0.08757225    -0.23430
C562        C  0.41866037  0.16853923  0.09797234     0.19470
F563        F  0.40675832  0.16629137  0.13342339    -0.13380
F564        F  0.38543308  0.21007528  0.08625308    -0.15750
F565        F  0.47779707  0.13460371  0.03854773    -0.15750
F566        F  0.45272296  0.17463743  0.98886897    -0.13380
C567        C  0.43071172  0.21306637  0.29048006     0.24630
C568        C  0.42715878  0.21415057  0.33023480    -0.23480
C569        C  0.43733059  0.18941071  0.35230186     0.19530
C570        C  0.45582466  0.16698660  0.33582893     0.24570
C571        C  0.46328775  0.16876249  0.29709210    -0.23430
C572        C  0.44800408  0.19003432  0.27390900     0.19470
F573        F  0.45334625  0.19104963  0.23582610    -0.13380
F574        F  0.42051059  0.23623760  0.26836547    -0.15750
F575        F  0.46949093  0.14601089  0.35854263    -0.15750
F576        F  0.43364050  0.18961693  0.39078899    -0.13380
C577        C  0.77658975  0.24213776  0.42485635     0.24630
C578        C  0.74847948  0.25038762  0.40768362    -0.23480
C579        C  0.74850493  0.25857361  0.36842247     0.19530
C580        C  0.77544724  0.25784167  0.34719480     0.24570
C581        C  0.80335492  0.24937648  0.36441882    -0.23430
C582        C  0.80350887  0.24180623  0.40370031     0.19470
F583        F  0.82979240  0.23335958  0.42183459    -0.13380
F584        F  0.77817082  0.23360798  0.46207292    -0.15750
F585        F  0.77423331  0.26611662  0.30986853    -0.15750
F586        F  0.72235893  0.26712679  0.34999825    -0.13380
C587        C  0.61110730  0.13869986  0.05816086     0.24630
C588        C  0.62680123  0.16607182  0.06879104    -0.23480
C589        C  0.61935274  0.17934312  0.10403497     0.19530
C590        C  0.59528006  0.16724547  0.12582842     0.24570
C591        C  0.57700753  0.14259644  0.11225646    -0.23430
C592        C  0.58635780  0.12763931  0.07905493     0.19470
F593        F  0.57042310  0.10315641  0.06544274    -0.13380
F594        F  0.61839814  0.12339801  0.02572287    -0.15750
F595        F  0.59038261  0.17923678  0.16075160    -0.15750
F596        F  0.63432206  0.20468895  0.11665053    -0.13380
C597        C  0.63416053  0.14842516  0.28396149     0.24630
C598        C  0.60876390  0.13197817  0.29720154    -0.23480
C599        C  0.60838569  0.12399560  0.33582206     0.19530
C600        C  0.62711721  0.14019460  0.36180949     0.24570
C601        C  0.64389316  0.16533199  0.34866217    -0.23430
C602        C  0.65123148  0.16623019  0.30999033     0.19470
F603        F  0.66919304  0.18890830  0.29682143    -0.13380
F604        F  0.63664858  0.15397400  0.24598174    -0.15750
F605        F  0.62226438  0.13711566  0.39983410    -0.15750
F606        F  0.58550555  0.10631976  0.34915304    -0.13380
C607        C  0.59728796  0.30199156  0.01795822     0.24630
C608        C  0.62838528  0.29441882  0.02334848    -0.23480
C609        C  0.64810894  0.31695721  0.03923405     0.19530
C610        C  0.63667298  0.34483702  0.05241218     0.24570
C611        C  0.60524062  0.35145403  0.04987258    -0.23430
C612        C  0.58601434  0.33025101  0.03055656     0.19470
F613        F  0.55553843  0.33544365  0.02755426    -0.13380
F614        F  0.57738767  0.28165962  0.50171460    -0.15750
F615        F  0.65590713  0.36407929  0.07184022    -0.15750
F616        F  0.67830976  0.31124178  0.04492206    -0.13380
C617        C  0.57512712  0.31852211  0.35173955     0.24630
C618        C  0.60368267  0.30468291  0.34593341    -0.23480
C619        C  0.62068613  0.31364552  0.31419357     0.19530
C620        C  0.60742973  0.33267313  0.28613175     0.24570
C621        C  0.57720582  0.34309490  0.28973692    -0.23430
C622        C  0.56211746  0.33744582  0.32403857     0.19470
F623        F  0.53275039  0.34657262  0.32815300    -0.13380
F624        F  0.55826196  0.31118255  0.38256855    -0.15750
F625        F  0.62250019  0.33754226  0.25319808    -0.15750
F626        F  0.64847871  0.30126403  0.30805048    -0.13380
C627        C  0.52382632  0.18827881  0.49598208     0.24630
C628        C  0.53719519  0.17206462  0.46614496    -0.23480
C629        C  0.51986767  0.16988187  0.43209486     0.19530
C630        C  0.50578494  0.19656174  0.42002313     0.24570
C631        C  0.50165540  0.22025395  0.44671371    -0.23430
C632        C  0.50815070  0.21461400  0.48594812     0.19470
F633        F  0.50172598  0.23516549  0.51380545    -0.13380
F634        F  0.53428645  0.18492543  0.53255936    -0.15750
F635        F  0.49930378  0.20029832  0.38231999    -0.15750
F636        F  0.52670716  0.14833471  0.40568511    -0.13380
C637        C  0.51466907  0.99297224  0.29695865     0.24630
C638        C  0.53393100  0.97088972  0.28182664    -0.23480
C639        C  0.54940091  0.97696275  0.24773699     0.19530
C640        C  0.54511170  0.00445457  0.22858121     0.24570
C641        C  0.52509642  0.02627444  0.24309597    -0.23430
C642        C  0.51021367  0.02036822  0.27779663     0.19470
F643        F  0.49016181  0.04060885  0.29236028    -0.13380
F644        F  0.49830624  0.98706586  0.32864959    -0.15750
F645        F  0.56066197  0.00977499  0.19609924    -0.15750
F646        F  0.56801505  0.95573846  0.23240516    -0.13380
C647        C  0.51256074  0.52747047  0.22264942     0.24630
C648        C  0.51809005  0.52740764  0.26289304    -0.23480
C649        C  0.52892530  0.50054584  0.27945115     0.19530
C650        C  0.53397765  0.47463791  0.25679904     0.24570
C651        C  0.52801863  0.47452936  0.21664503    -0.23430
C652        C  0.51752982  0.50149136  0.19998047     0.19470
F653        F  0.51109940  0.50257670  0.16184652    -0.13380
F654        F  0.50138086  0.55251257  0.20497154    -0.15750
F655        F  0.54513576  0.44961131  0.27454658    -0.15750
F656        F  0.53514550  0.49933106  0.31763084    -0.13380
C657        C  0.46121303  0.74382185  0.37865075     0.24630
C658        C  0.43950337  0.73327386  0.35146297    -0.23480
C659        C  0.43247866  0.75342750  0.32197595     0.19530
C660        C  0.45723066  0.76843139  0.30603471     0.24570
C661        C  0.48578777  0.76796576  0.32559164    -0.23430
C662        C  0.48691453  0.75813468  0.36396443     0.19470
F663        F  0.51319838  0.75942885  0.38533456    -0.13380
F664        F  0.46349733  0.73049390  0.41348143    -0.15750
F665        F  0.45392048  0.78091098  0.27092862    -0.15750
F666        F  0.40617263  0.74992401  0.30114580    -0.13380
C667        C  0.40866791  0.83110649  0.44223832     0.24630
C668        C  0.41679669  0.80452574  0.46184365    -0.23480
C669        C  0.44704131  0.79409904  0.45988386     0.19530
C670        C  0.46877993  0.80981369  0.43919816     0.24570
C671        C  0.46082945  0.83606793  0.41903843    -0.23430
C672        C  0.43054096  0.84667946  0.42060929     0.19470
F673        F  0.42208064  0.87172473  0.40079791    -0.13380
F674        F  0.38002987  0.84242350  0.44501355    -0.15750
F675        F  0.49802679  0.79972053  0.43959695    -0.15750
F676        F  0.45591369  0.76902790  0.47938135    -0.13380
C677        C  0.40992227  0.81817420  0.21078649     0.24630
C678        C  0.40928401  0.81098646  0.17143247    -0.23480
C679        C  0.43069699  0.82567271  0.14816994     0.19530
C680        C  0.45602820  0.84101319  0.16467551     0.24570
C681        C  0.45906459  0.84420597  0.20458439    -0.23430
C682        C  0.43426109  0.83539390  0.22709258     0.19470
F683        F  0.43587948  0.83934783  0.26566233    -0.13380
F684        F  0.38978322  0.80454785  0.23423085    -0.15750
F685        F  0.47929179  0.84962473  0.14200739    -0.15750
F686        F  0.43056325  0.81978791  0.10995701    -0.13380
C687        C  0.43988356  0.68017325  0.48771753     0.24630
C688        C  0.40760348  0.68397606  0.48788004    -0.23480
C689        C  0.38999348  0.66226149  0.46702972     0.19530
C690        C  0.40407363  0.63938901  0.44475832     0.24570
C691        C  0.43628629  0.63677230  0.44300057    -0.23430
C692        C  0.45382910  0.65704850  0.46588689     0.19470
F693        F  0.48478299  0.65653939  0.46415605    -0.13380
F694        F  0.45847774  0.69993886  0.50714851    -0.15750
F695        F  0.38605425  0.62090548  0.42253186    -0.15750
F696        F  0.35905609  0.66416412  0.46612412    -0.13380
C697        C  0.40276108  0.65270593  0.15600154     0.24630
C698        C  0.38101893  0.66825422  0.17771305    -0.23480
C699        C  0.37813010  0.66122908  0.21643814     0.19530
C700        C  0.40073893  0.64411375  0.23479672     0.24570
C701        C  0.42684697  0.63552844  0.21466170    -0.23430
C702        C  0.42620102  0.63686861  0.17466378     0.19470
F703        F  0.45091872  0.62804979  0.15465492    -0.13380
F704        F  0.40500031  0.65803400  0.11798789    -0.15750
F705        F  0.40060992  0.64209176  0.27356230    -0.15750
F706        F  0.35681057  0.67544537  0.23769984    -0.13380
C707        C  0.58389350  0.62958672  0.40516259     0.24630
C708        C  0.55937200  0.64661060  0.38991503    -0.23480
C709        C  0.56338768  0.67834676  0.38695087     0.19530
C710        C  0.59003117  0.69273357  0.40142236     0.24570
C711        C  0.61295897  0.67606057  0.42047862    -0.23430
C712        C  0.61011758  0.64418522  0.42067223     0.19470
F713        F  0.63124846  0.62740521  0.43988873    -0.13380
F714        F  0.58143213  0.59898944  0.40833755    -0.15750
F715        F  0.59154134  0.72352536  0.40129104    -0.15750
F716        F  0.54087775  0.69588466  0.37181633    -0.13380
C717        C  0.59006465  0.66915582  0.14956951     0.24630
C718        C  0.60933313  0.69365833  0.16085258    -0.23480
C719        C  0.60948537  0.70265265  0.19959898     0.19530
C720        C  0.58833540  0.69043375  0.22499831     0.24570
C721        C  0.56664129  0.66858779  0.21250576    -0.23430
C722        C  0.56877529  0.65684800  0.17509734     0.19470
F723        F  0.54806158  0.63597536  0.16194405    -0.13380
F724        F  0.58895443  0.65986689  0.11243661    -0.15750
F725        F  0.58735624  0.70184861  0.26117419    -0.15750
F726        F  0.62727263  0.72641116  0.21152565    -0.13380
C727        C  0.62991072  0.81374708  0.42172183     0.24630
C728        C  0.61625240  0.80077806  0.45394899    -0.23480
C729        C  0.58933686  0.81437636  0.46730856     0.19530
C730        C  0.57514163  0.83826417  0.44753863     0.24570
C731        C  0.58681518  0.84887874  0.41299969    -0.23430
C732        C  0.61504364  0.83709316  0.40106243     0.19470
F733        F  0.62689859  0.84644006  0.36755831    -0.13380
F734        F  0.65623626  0.80206347  0.40822941    -0.15750
F735        F  0.54769362  0.84836564  0.45966018    -0.15750
F736        F  0.57578331  0.80386370  0.49889950    -0.13380
C737        C  0.63444521  0.83425324  0.16279687     0.24630
C738        C  0.61659152  0.83026869  0.12927971    -0.23480
C739        C  0.59478662  0.85248907  0.11959309     0.19530
C740        C  0.58530069  0.87297627  0.14754350     0.24570
C741        C  0.59686309  0.86993960  0.18491782    -0.23430
C742        C  0.62511840  0.85529689  0.19028813     0.19470
F743        F  0.63835981  0.85459470  0.22576739    -0.13380
F744        F  0.65703218  0.81444248  0.17196395    -0.15750
F745        F  0.55976988  0.88962052  0.14082657    -0.15750
F746        F  0.57932580  0.85111276  0.08549442    -0.13380
C747        C  0.50724892  0.76126100  0.08634905     0.24630
C748        C  0.48502387  0.74253114  0.10167029    -0.23480
C749        C  0.48765697  0.71096471  0.09813208     0.19530
C750        C  0.50667769  0.69917282  0.07048465     0.24570
C751        C  0.52393314  0.71899855  0.04827427    -0.23430
C752        C  0.52244689  0.75042123  0.05487380     0.19470
F753        F  0.53972114  0.76994322  0.03476204    -0.13380
F754        F  0.50673865  0.79166223  0.09323597    -0.15750
F755        F  0.50981323  0.66866985  0.56681150    -0.15750
F756        F  0.46835005  0.69208955  0.11648653    -0.13380
C757        C  0.98190440  0.99604865  0.50949950     0.24630
C758        C  0.99994128  0.98899156  0.47764030    -0.23480
C759        C  0.02168378  0.01024856  0.46590904     0.19530
C760        C  0.02550372  0.03783707  0.98602510     0.24570
C761        C  0.00771728  0.04452843  0.01835348    -0.23430
C762        C  0.98580282  0.02334104  0.02966372     0.19470
F763        F  0.96737247  0.02938745  0.05952113    -0.13380
F764        F  0.96024647  0.97639667  0.52137786    -0.15750
F765        F  0.04714217  0.05773926  0.97439520    -0.15750
F766        F  0.04016364  0.00373763  0.43627759    -0.13380
C767        C  0.05091582  0.50995686  0.02679569     0.24630
C768        C  0.02434400  0.49195688  0.02842410    -0.23480
C769        C  0.99899538  0.49968369  0.00494488     0.19530
C770        C  0.00020831  0.52459783  0.48034290     0.24570
C771        C  0.02693342  0.54210482  0.47786126    -0.23430
C772        C  0.05212183  0.53501322  0.50195580     0.19470
F773        F  0.07774415  0.55253504  0.50160516    -0.13380
F774        F  0.07620895  0.50248390  0.04772154    -0.15750
F775        F  0.97487528  0.53207006  0.45947662    -0.15750
F776        F  0.97306926  0.48261238  0.00552044    -0.13380
C777        C  0.96747604  0.74016375  0.46452286     0.24630
C778        C  0.98773524  0.74118360  0.43379796    -0.23480
C779        C  0.97600177  0.74944368  0.39733149     0.19530
C780        C  0.94695924  0.76251006  0.39466668     0.24570
C781        C  0.93297244  0.77049902  0.42917449    -0.23430
C782        C  0.93771466  0.75065695  0.45951338     0.19470
F783        F  0.91908841  0.75165512  0.49004896    -0.13380
F784        F  0.97715181  0.73209932  0.49981094    -0.15750
F785        F  0.93820079  0.77622683  0.36160970    -0.15750
F786        F  0.99320542  0.74742291  0.36552908    -0.13380
C787        C  0.73884968  0.76121228  0.12749328     0.24630
C788        C  0.73800899  0.75961146  0.08679492    -0.23480
C789        C  0.76538800  0.76446680  0.06745972     0.19530
C790        C  0.79285895  0.76951446  0.08805901     0.24570
C791        C  0.79367794  0.76975848  0.12859576    -0.23430
C792        C  0.76622009  0.76617056  0.14787813     0.19470
F793        F  0.76586001  0.76617087  0.18673254    -0.13380
F794        F  0.71326148  0.75738047  0.14829636    -0.15750
F795        F  0.81873125  0.77411352  0.06809633    -0.15750
F796        F  0.76581201  0.76398936  0.02863649    -0.13380
C797        C  0.90947753  0.70874523  0.33151214     0.24630
C798        C  0.91196897  0.70864415  0.29183986    -0.23480
C799        C  0.92951772  0.68605542  0.27398216     0.19530
C800        C  0.94882179  0.66741681  0.29568369     0.24570
C801        C  0.94969931  0.67057994  0.33553593    -0.23430
C802        C  0.92791808  0.68943082  0.35331287     0.19470
F803        F  0.92654968  0.69117033  0.39207322    -0.13380
F804        F  0.89160298  0.72941030  0.34919793    -0.15750
F805        F  0.96860526  0.64875226  0.27773393    -0.15750
F806        F  0.92946503  0.68370597  0.23525143    -0.13380
C807        C  0.00012472  0.70439346  0.08237899     0.24630
C808        C  0.98941567  0.68556577  0.05238931    -0.23480
C809        C  0.95732017  0.68556076  0.04463634     0.19530
C810        C  0.93785162  0.70672193  0.06346270     0.24570
C811        C  0.95026807  0.72857513  0.08947403    -0.23430
C812        C  0.98162133  0.72626420  0.09885477     0.19470
F813        F  0.99542003  0.74634416  0.12307362    -0.13380
F814        F  0.02981822  0.70353210  0.09386080    -0.15750
F815        F  0.90771075  0.70764119  0.05359501    -0.15750
F816        F  0.94532608  0.66763434  0.01625832    -0.13380
C817        C  0.91047978  0.86639771  0.27536587     0.24630
C818        C  0.88940747  0.84353458  0.28616472    -0.23480
C819        C  0.88404022  0.84045163  0.32542865     0.19530
C820        C  0.90188966  0.85673560  0.35293904     0.24570
C821        C  0.92578315  0.87659943  0.34212163    -0.23430
C822        C  0.92847316  0.88260118  0.30290070     0.19470
F823        F  0.95116278  0.90111817  0.29088198    -0.13380
F824        F  0.91650493  0.87025060  0.23775670    -0.15750
F825        F  0.89799147  0.85052787  0.39050489    -0.15750
F826        F  0.86456363  0.81859967  0.33742719    -0.13380
C827        C  0.88567157  0.88830806  0.09957890     0.24630
C828        C  0.88183147  0.85958068  0.08215721    -0.23480
C829        C  0.87524184  0.85790441  0.04276189     0.19530
C830        C  0.88156055  0.88343835  0.02063975     0.24570
C831        C  0.89896599  0.90690543  0.03824646    -0.23430
C832        C  0.89346522  0.91285905  0.07678535     0.19470
F833        F  0.90501920  0.93842921  0.09364450    -0.13380
F834        F  0.88850070  0.89095939  0.13823491    -0.15750
F835        F  0.88128240  0.88038249  0.98194854    -0.15750
F836        F  0.86905843  0.83082327  0.02533298    -0.13380
C837        C  0.26752251  0.72606672  0.13416033     0.24630
C838        C  0.27168191  0.73922601  0.09794096    -0.23480
C839        C  0.24836224  0.75705832  0.08222102     0.19530
C840        C  0.22246582  0.76368782  0.10362101     0.24570
C841        C  0.21948969  0.75263078  0.14141211    -0.23430
C842        C  0.24191605  0.73285696  0.15576031     0.19470
F843        F  0.23956410  0.72052894  0.19104820    -0.13380
F844        F  0.28950174  0.70812324  0.14983418    -0.15750
F845        F  0.20103680  0.78215442  0.08777360    -0.15750
F846        F  0.25184135  0.77027265  0.04762660    -0.13380
C847        C  0.08464116  0.83047338  0.29864827     0.24630
C848        C  0.08816368  0.79915936  0.30450964    -0.23480
C849        C  0.07333797  0.78534853  0.33489811     0.19530
C850        C  0.05459904  0.80233919  0.35862551     0.24570
C851        C  0.04966380  0.83359241  0.35188175    -0.23430
C852        C  0.06543666  0.84752326  0.32188490     0.19470
F853        F  0.06223147  0.87757296  0.31464283    -0.13380
F854        F  0.09878083  0.84435986  0.26927164    -0.15750
F855        F  0.04130597  0.78788928  0.38814195    -0.15750
F856        F  0.07726299  0.75536811  0.34192208    -0.13380
C857        C  0.04071914  0.81717317  0.11247462     0.24630
C858        C  0.06486472  0.80065557  0.09638173    -0.23480
C859        C  0.06989434  0.80429608  0.05687550     0.19530
C860        C  0.05028657  0.82249265  0.03390547     0.24570
C861        C  0.02547058  0.83810631  0.04989912    -0.23430
C862        C  0.02145021  0.83564989  0.08968111     0.19470
F863        F  0.99749781  0.84969817  0.10618549    -0.13380
F864        F  0.03500768  0.81443724  0.15029780    -0.15750
F865        F  0.05443661  0.82333220  0.99554621    -0.15750
F866        F  0.09222962  0.78816211  0.03981115    -0.13380
C867        C  0.11465230  0.65209577  0.09460483     0.24630
C868        C  0.13305568  0.67597287  0.08124536    -0.23480
C869        C  0.15256937  0.67045652  0.05059885     0.19530
C870        C  0.14686291  0.64466439  0.02772090     0.24570
C871        C  0.11871691  0.62995796  0.03297615    -0.23430
C872        C  0.10980353  0.62678047  0.07099048     0.19470
F873        F  0.08770703  0.60642768  0.08005484    -0.13380
F874        F  0.09812177  0.65526156  0.12680940    -0.15750
F875        F  0.16000943  0.64275072  0.99299962    -0.15750
F876        F  0.17240172  0.69208698  0.03891047    -0.13380
C877        C  0.11620131  0.66228999  0.28222778     0.24630
C878        C  0.12998339  0.69031792  0.29389864    -0.23480
C879        C  0.12567314  0.69977737  0.33188413     0.19530
C880        C  0.10547480  0.68391450  0.35566190     0.24570
C881        C  0.08908547  0.65775142  0.34254511    -0.23430
C882        C  0.09601301  0.64636008  0.30611882     0.19470
F883        F  0.08091134  0.62156238  0.29200613    -0.13380
F884        F  0.12022813  0.65147835  0.24619194    -0.15750
F885        F  0.10015368  0.69571251  0.39087044    -0.15750
F886        F  0.13847216  0.72614441  0.34492617    -0.13380
C887        C  0.01946351  0.72159602  0.26309416     0.24630
C888        C  0.01893607  0.69898795  0.23429065    -0.23480
C889        C  0.99205401  0.69728377  0.21212980     0.19530
C890        C  0.97845685  0.72473163  0.20228220     0.24570
C891        C  0.98971940  0.75181205  0.21927691    -0.23430
C892        C  0.00738065  0.74987039  0.25316163     0.19470
F893        F  0.01416803  0.77495007  0.27462867    -0.13380
F894        F  0.03931217  0.71966051  0.29331626    -0.15750
F895        F  0.95486703  0.72496055  0.17656809    -0.15750
F896        F  0.98535382  0.67190068  0.19128353    -0.13380
O897        O  0.04320251  0.70693505  0.67494399    -0.79860
O898        O  0.16937141  0.77137086  0.64651743    -0.64550
O899        O  0.10486434  0.71796200  0.66689548    -1.11150
C900        C  0.10543288  0.78087165  0.77713864     1.07030
O901        O  0.18965398  0.75256371  0.69970666    -0.77760
O902        O  0.15657316  0.73634629  0.77067469    -0.65340
Ni903      Ni  0.07146551  0.71224150  0.63360486     1.34870
C904        C  0.14092545  0.71235001  0.76401662     0.85760
O905        O  0.14671021  0.72224552  0.61040551    -0.78300
O906        O  0.09872135  0.71598795  0.59166690    -0.88570
C907        C  0.19218584  0.76032466  0.66426967     0.85340
O908        O  0.06226721  0.75476148  0.63119686    -0.66770
O909        O  0.13152218  0.79089965  0.76689134    -0.86060
C910        C  0.07989581  0.77524182  0.61844090     0.86170
C911        C  0.12623515  0.70676360  0.59332881     1.07740
H912        H  0.11593966  0.78473968  0.69430238     0.39540
O913        O  0.12614585  0.76573672  0.69925214    -1.08720
O914        O  0.12968987  0.70952470  0.73132516    -0.65370
Ni915      Ni  0.09838961  0.73599304  0.71471903     1.26350
O916        O  0.10923700  0.77318565  0.62209562    -0.65600
O917        O  0.09301455  0.75632443  0.76373174    -0.77890
C918        C  0.04631757  0.70157593  0.71088876     0.85550
O919        O  0.07145653  0.70497561  0.72860192    -0.65070
Ni920      Ni  0.16010446  0.77109706  0.73461642     1.27450
Ni921      Ni  0.13580378  0.74585615  0.65345491     1.26060
H922        H  0.11404798  0.69821995  0.66976121     0.40090
O923        O  0.97852016  0.78592480  0.66962746    -0.79860
O924        O  0.84730269  0.76489245  0.63254681    -0.64550
O925        O  0.91746641  0.80405216  0.67169540    -1.11150
C926        C  0.90262828  0.73496037  0.76907246     1.07030
O927        O  0.82463453  0.78098735  0.68558571    -0.77760
O928        O  0.85865936  0.80415002  0.75146937    -0.65340
Ni929      Ni  0.95142758  0.81267356  0.64135286     1.34870
C930        C  0.88448844  0.81674210  0.75968568     0.85760
O931        O  0.88205609  0.80947505  0.60523205    -0.78300
O932        O  0.92424329  0.83871899  0.61356739    -0.88570
C933        C  0.82325910  0.77176918  0.65028626     0.85340
O934        O  0.94647909  0.78111693  0.60328346    -0.66770
O935        O  0.87434610  0.74283989  0.76661257    -0.86060
C936        C  0.93318204  0.75548038  0.60561756     0.86170
C937        C  0.89676958  0.83420861  0.60113151     1.07740
H938        H  0.88714307  0.73958464  0.68767469     0.39540
O939        O  0.88457784  0.76075994  0.69425231    -1.08720
O940        O  0.90886349  0.80629750  0.74710221    -0.65370
Ni941      Ni  0.92192776  0.77672506  0.71211111     1.26350
O942        O  0.90810761  0.75261552  0.62369492    -0.65600
O943        O  0.92416762  0.74767385  0.75108951    -0.77890
C944        C  0.97847076  0.78061948  0.70536055     0.85550
O945        O  0.95969572  0.79347410  0.72598458    -0.65070
Ni946      Ni  0.85073852  0.76403854  0.72684751     1.27450
Ni947      Ni  0.88347289  0.78404743  0.64932547     1.26060
H948        H  0.91041015  0.82324329  0.68163500     0.40090
O949        O  0.03066282  0.72548375  0.97220680    -0.79860
O950        O  0.02131036  0.59428527  0.98136367    -0.64550
O951        O  0.05225155  0.66854120  0.94946415    -1.11150
C952        C  0.97612213  0.66018411  0.85874199     1.07030
O953        O  0.02985080  0.57559739  0.92268613    -0.77760
O954        O  0.05306901  0.62065923  0.87061065    -0.65340
Ni955      Ni  0.06412306  0.69843469  0.98544136     1.34870
C956        C  0.06056675  0.64815631  0.86311857     0.85760
O957        O  0.06764841  0.62818353  0.50685538    -0.78300
O958        O  0.09517492  0.67106205  0.49995628    -0.88570
C959        C  0.02554121  0.57202803  0.95904407     0.85340
O960        O  0.03934175  0.68473929  0.52741374    -0.66770
O961        O  0.98965962  0.63456689  0.85239736    -0.86060
C962        C  0.01288052  0.67269588  0.52570548     0.86170
C963        C  0.09254125  0.64329220  0.51042547     1.07740
H964        H  0.98746331  0.63405336  0.93682625     0.39540
O965        O  0.00806492  0.63500812  0.92742888    -1.08720
O966        O  0.04363026  0.66969299  0.87300115    -0.65370
Ni967      Ni  0.01883792  0.67516481  0.91664291     1.26350
O968        O  0.00724095  0.65182627  0.00108205    -0.65600
O969        O  0.98480259  0.67890578  0.88461363    -0.77890
C970        C  0.01898069  0.72944248  0.93886247     0.85550
O971        O  0.02982874  0.71565651  0.91098510    -0.65070
Ni972      Ni  0.01224200  0.60671152  0.88729671     1.27450
Ni973      Ni  0.03697751  0.63193616  0.96770583     1.26060
H974        H  0.07007029  0.66367182  0.93498082     0.40090
O975        O  0.92797762  0.81193151  0.97183161    -0.79860
O976        O  0.00007332  0.93688512  0.98684688    -0.64550
O977        O  0.95156299  0.86852288  0.96266493    -1.11150
C978        C  0.02850818  0.85121492  0.87629958     1.07030
O979        O  0.99538473  0.95130802  0.92614168    -0.77760
O980        O  0.96575219  0.90794303  0.87493782    -0.65340
Ni981      Ni  0.93760937  0.84561956  0.00478429     1.34870
C982        C  0.95212901  0.88232957  0.86996269     0.85760
O983        O  0.94461041  0.91989936  0.50756430    -0.78300
O984        O  0.94408748  0.87852067  0.53939843    -0.88570
C985        C  0.99917512  0.95758600  0.96217042     0.85340
O986        O  0.97875971  0.83286175  0.01473993    -0.66770
O987        O  0.02283404  0.87923412  0.86850427    -0.86060
C988        C  0.00025175  0.85116968  0.52503308     0.86170
C989        C  0.93147234  0.90316801  0.53070505     1.07740
H990        H  0.02339876  0.88582357  0.95298998     0.39540
O991        O  0.00345714  0.88869318  0.94119063    -1.08720
O992        O  0.96092891  0.85915165  0.88782934    -0.65370
Ni993      Ni  0.98369515  0.85123475  0.93371293     1.26350
O994        O  0.99914918  0.87997232  0.01716658    -0.65600
O995        O  0.01640543  0.83734787  0.90411618    -0.77890
C996        C  0.94105914  0.80123175  0.94259075     0.85550
O997        O  0.96429714  0.81342100  0.92781275    -0.65070
Ni998      Ni  0.00709543  0.91391566  0.89761338     1.27450
Ni999      Ni  0.97574016  0.90297696  0.97651273     1.26060
H1000       H  0.93442697  0.87464801  0.94674781     0.40090
O1001       O  0.57060870  0.70981670  0.57125660    -0.79860
O1002       O  0.68593933  0.74808298  0.58712467    -0.64550
O1003       O  0.60641552  0.75268107  0.55207400    -1.11150
C1004       C  0.62868513  0.69101484  0.95358638     1.07030
O1005       O  0.70648137  0.75087023  0.52885952    -0.77760
O1006       O  0.65652113  0.76980842  0.98158108    -0.65340
Ni1007     Ni  0.57599279  0.75099606  0.58738560     1.34870
C1008       C  0.62830728  0.77203535  0.97187957     0.85760
O1009       O  0.63784099  0.78314531  0.60813353    -0.78300
O1010       O  0.58682478  0.79137030  0.60137437    -0.88570
C1011       C  0.70860559  0.75239861  0.56596044     0.85340
O1012       O  0.59649106  0.73886091  0.63242621    -0.66770
O1013       O  0.65072694  0.71056853  0.95098451    -0.86060
C1014       C  0.61538795  0.71776337  0.63242197     0.86170
C1015       C  0.61398334  0.80013473  0.61114683     1.07740
H1016       H  0.65749100  0.70172152  0.54240524     0.39540
O1017       O  0.65112111  0.72090044  0.53176611    -1.08720
O1018       O  0.60967270  0.74997984  0.47725553    -0.65370
Ni1019     Ni  0.60956796  0.71932205  0.51798488     1.26350
O1020       O  0.63593096  0.71706574  0.60698995    -0.65600
O1021       O  0.61539623  0.68675437  0.98461593    -0.77890
C1022       C  0.55423315  0.70967513  0.54132112     0.85550
O1023       O  0.56675478  0.71537699  0.50995378    -0.65070
Ni1024     Ni  0.67700831  0.73164997  0.49127259     1.27450
Ni1025     Ni  0.64547277  0.75053809  0.57122217     1.26060
H1026       H  0.60448818  0.77163438  0.53891088     0.40090
O1027       O  0.43107096  0.74512945  0.60675713    -0.79860
O1028       O  0.32269573  0.74883520  0.60953796    -0.64550
O1029       O  0.40462983  0.72776486  0.59793694    -1.11150
C1030       C  0.39772771  0.79136297  0.99189718     1.07030
O1031       O  0.31032350  0.73716048  0.54858864    -0.77760
O1032       O  0.36446046  0.71455559  0.51149623    -0.65340
Ni1033     Ni  0.42924382  0.72119693  0.64839882     1.34870
C1034       C  0.39341561  0.71148428  0.50770710     0.85760
O1035       O  0.35550252  0.70450899  0.63917741    -0.78300
O1036       O  0.39222801  0.71981340  0.67467310    -0.88570
C1037       C  0.30311791  0.74185079  0.58389864     0.85340
O1038       O  0.42430238  0.76141287  0.66548328    -0.66770
O1039       O  0.37482206  0.77357746  0.98442441    -0.86060
C1040       C  0.40179433  0.77934105  0.65954706     0.86170
C1041       C  0.37389159  0.69918977  0.66585760     1.07740
H1042       H  0.36085749  0.78531258  0.57184274     0.39540
O1043       O  0.36658021  0.76508954  0.56392527    -1.08720
O1044       O  0.41146743  0.73239681  0.51981132    -0.65370
Ni1045     Ni  0.40829450  0.76285141  0.56029838     1.26350
O1046       O  0.37635320  0.77152244  0.64149956    -0.65600
O1047       O  0.40845357  0.79486762  0.52545239    -0.77890
C1048       C  0.45532255  0.75274667  0.59059510     0.85550
O1049       O  0.45087903  0.76467440  0.55921487    -0.65070
Ni1050     Ni  0.34442318  0.75410099  0.51819995     1.27450
Ni1051     Ni  0.36296135  0.73768445  0.60481355     1.26060
H1052       H  0.40293550  0.70801960  0.58417530     0.40090
O1053       O  0.50798424  0.55379963  0.82305016    -0.79860
O1054       O  0.46153501  0.68522940  0.85950092    -0.64550
O1055       O  0.47738013  0.60701040  0.82447582    -1.11150
C1056       C  0.53942239  0.66260314  0.73644259     1.07030
O1057       O  0.44894561  0.69785596  0.80090115    -0.77760
O1058       O  0.46396747  0.66902704  0.73661580    -0.65340
Ni1059     Ni  0.49168051  0.58072695  0.86379035     1.34870
C1060       C  0.45590435  0.64143488  0.73466919     0.85760
O1061       O  0.44073319  0.63227474  0.87703358    -0.78300
O1062       O  0.47352051  0.60405238  0.90837908    -0.88570
C1063       C  0.44862703  0.70326121  0.83680565     0.85340
O1064       O  0.52900149  0.60382330  0.86790377    -0.66770
O1065       O  0.52399114  0.68592813  0.74629944    -0.86060
C1066       C  0.52960163  0.63169618  0.87808797     0.86170
C1067       C  0.45025305  0.62205115  0.90826192     1.07740
H1068       H  0.51725708  0.66570772  0.81795859     0.39540
O1069       O  0.49833553  0.65905576  0.80594037    -1.08720
O1070       O  0.46995015  0.62029136  0.75171830    -0.65370
Ni1071     Ni  0.50517157  0.62014629  0.78562402     1.26350
O1072       O  0.50484392  0.64715441  0.87891985    -0.65600
O1073       O  0.53280274  0.63536038  0.74665825    -0.77890
C1074       C  0.51239940  0.55540257  0.78652836     0.85550
O1075       O  0.51168586  0.58020907  0.76827474    -0.65070
Ni1076     Ni  0.48678129  0.69132405  0.77398806     1.27450
Ni1077     Ni  0.46990415  0.64615175  0.84249110     1.26060
H1078       H  0.45878377  0.59850937  0.81334511     0.40090
O1079       O  0.51320045  0.78484002  0.77209548    -0.79860
O1080       O  0.52308786  0.92008117  0.77013173    -0.64550
O1081       O  0.54561993  0.83935024  0.78432905    -1.11150
C1082       C  0.48315528  0.84889051  0.89230241     1.07030
O1083       O  0.53822788  0.93194316  0.83007493    -0.77760
O1084       O  0.55131964  0.88626758  0.88711233    -0.65340
Ni1085     Ni  0.54219323  0.80941709  0.74517549     1.34870
C1086       C  0.56419638  0.86032204  0.88418699     0.85760
O1087       O  0.55859472  0.88234396  0.72992065    -0.78300
O1088       O  0.57030010  0.83322711  0.71742050    -0.88570
C1089       C  0.53171664  0.93940328  0.79520318     0.85340
O1090       O  0.50838084  0.82529539  0.71618326    -0.66770
O1091       O  0.48875167  0.87753480  0.89205712    -0.86060
C1092       C  0.49009751  0.84687597  0.72270841     0.86170
C1093       C  0.57395583  0.86181039  0.71288513     1.07740
H1094       H  0.48903526  0.87523416  0.81287872     0.39540
O1095       O  0.51050803  0.87500678  0.81988724    -1.08720
O1096       O  0.55593565  0.84071165  0.85960332    -0.65370
Ni1097     Ni  0.52125041  0.83436778  0.82720897     1.26350
O1098       O  0.49682393  0.86877188  0.74549562    -0.65600
O1099       O  0.49571008  0.82984859  0.87009878    -0.77890
C1100       C  0.51290283  0.78038918  0.80795033     0.85550
O1101       O  0.53186680  0.79374689  0.82942597    -0.65070
Ni1102     Ni  0.51501219  0.90307836  0.86107276     1.27450
Ni1103     Ni  0.53384292  0.87935553  0.77488823     1.26060
H1104       H  0.56688043  0.83989179  0.79238945     0.40090
O1105       O  0.71915000  0.23935514  0.96441795    -0.79860
O1106       O  0.58360315  0.19683673  0.98468630    -0.64550
O1107       O  0.66415750  0.21344800  0.95886570    -1.11150
C1108       C  0.61134782  0.27713102  0.86863138     1.07030
O1109       O  0.57808037  0.18333882  0.92498798    -0.77760
O1110       O  0.60822281  0.20124201  0.86502122    -0.65340
Ni1111     Ni  0.68961441  0.22365171  0.00174810     1.34870
C1112       C  0.63610277  0.19418792  0.86702256     0.85760
O1113       O  0.63656284  0.17538187  0.00526222    -0.78300
O1114       O  0.66300727  0.20528790  0.54289530    -0.88570
C1115       C  0.56850462  0.18276193  0.95898573     0.85340
O1116       O  0.66900006  0.26157784  0.00505114    -0.66770
O1117       O  0.58861623  0.25933422  0.87403600    -0.86060
C1118       C  0.64061946  0.26378060  0.01189674     0.86170
C1119       C  0.64443470  0.18257345  0.53841547     1.07740
H1120       H  0.60495430  0.25299208  0.94764398     0.39540
O1121       O  0.61300387  0.23493713  0.93584679    -1.08720
O1122       O  0.65599630  0.20967095  0.88536595    -0.65370
Ni1123     Ni  0.65312591  0.24321466  0.92079301     1.26350
O1124       O  0.62298405  0.24019786  0.00968542    -0.65600
O1125       O  0.63872185  0.27223026  0.88188211    -0.77890
C1126       C  0.71894192  0.24728926  0.92876903     0.85550
O1127       O  0.69442039  0.25117053  0.90906964    -0.65070
Ni1128     Ni  0.58332003  0.22177587  0.89984524     1.27450
Ni1129     Ni  0.62408607  0.20594314  0.97231632     1.26060
H1130       H  0.67235024  0.19527340  0.94741675     0.40090
O1131       O  0.48390475  0.25537692  0.89964340    -0.79860
O1132       O  0.35035717  0.27638194  0.89243060    -0.64550
O1133       O  0.43272078  0.29176687  0.91727453    -1.11150
C1134       C  0.41334828  0.22252274  0.51392508     1.07030
O1135       O  0.33707996  0.28966481  0.95185099    -0.77760
O1136       O  0.38606468  0.30212630  0.00757745    -0.65340
Ni1137     Ni  0.46304442  0.29066452  0.87931682     1.34870
C1138       C  0.41500909  0.30578596  0.01213238     0.85760
O1139       O  0.39341031  0.30946875  0.85765741    -0.78300
O1140       O  0.44278820  0.32457533  0.85718303    -0.88570
C1141       C  0.33022770  0.28433061  0.91610765     0.85340
O1142       O  0.44304952  0.26411376  0.84289400    -0.66770
O1143       O  0.38879123  0.23817252  0.51874609    -0.86060
C1144       C  0.42311531  0.24389792  0.84925578     0.86170
C1145       C  0.41513186  0.32574011  0.84475847     1.07740
H1146       H  0.38701668  0.23756794  0.93670896     0.39540
O1147       O  0.39161103  0.25809558  0.94505966    -1.08720
O1148       O  0.43381775  0.28985163  0.99425795    -0.65370
Ni1149     Ni  0.43372685  0.26104967  0.95398336     1.26350
O1150       O  0.40196376  0.24796115  0.87305865    -0.65600
O1151       O  0.43306585  0.22913863  0.98917504    -0.77890
C1152       C  0.48824047  0.24905964  0.93474282     0.85550
O1153       O  0.47580997  0.26477005  0.95969776    -0.65070
Ni1154     Ni  0.36500633  0.26599626  0.98554165     1.27450
Ni1155     Ni  0.39188206  0.28401279  0.90231441     1.26060
H1156       H  0.43373753  0.31144841  0.92968238     0.40090
O1157       O  0.51256553  0.21198250  0.72567087    -0.79860
O1158       O  0.51759618  0.07854148  0.74678828    -0.64550
O1159       O  0.53500925  0.15723713  0.71382963    -1.11150
C1160       C  0.46370936  0.13781072  0.61848738     1.07030
O1161       O  0.52217863  0.05896270  0.68773004    -0.77760
O1162       O  0.54283366  0.10566506  0.63993041    -0.65340
Ni1163     Ni  0.54328451  0.18926057  0.74937042     1.34870
C1164       C  0.54778520  0.13334909  0.63138487     0.85760
O1165       O  0.55926028  0.11892371  0.77114399    -0.78300
O1166       O  0.57565464  0.16723096  0.77150983    -0.88570
C1167       C  0.52107871  0.05609859  0.72447788     0.85340
O1168       O  0.51516230  0.17664454  0.78714257    -0.66770
O1169       O  0.48138028  0.11469846  0.61401233    -0.86060
C1170       C  0.49306612  0.15799921  0.78347290     0.86170
C1171       C  0.57941647  0.13929662  0.77854884     1.07740
H1172       H  0.47682571  0.11194330  0.70326820     0.39540
O1173       O  0.49666597  0.11622227  0.69286667    -1.08720
O1174       O  0.52771978  0.15358368  0.63796630    -0.65370
Ni1175     Ni  0.49913176  0.15723619  0.68020766     1.26350
O1176       O  0.49503070  0.13315737  0.76479154    -0.65600
O1177       O  0.46462880  0.15373368  0.64859694    -0.77890
C1178       C  0.51590925  0.21499885  0.69018353     0.85550
O1179       O  0.49927327  0.19909838  0.66863998    -0.65070
Ni1180     Ni  0.50319038  0.08857905  0.65209415     1.27450
Ni1181     Ni  0.52703935  0.11800578  0.73221430     1.26060
H1182       H  0.55339174  0.15545862  0.69947200     0.40090
O1183       O  0.56469629  0.29678069  0.68860454    -0.79860
O1184       O  0.53111159  0.42148583  0.71296258    -0.64550
O1185       O  0.52720143  0.34368863  0.67134225    -1.11150
C1186       C  0.59215990  0.36957094  0.58166542     1.07030
O1187       O  0.53482725  0.44585534  0.65676673    -0.77760
O1188       O  0.51269390  0.39806001  0.60611479    -0.65340
Ni1189     Ni  0.52397938  0.30953727  0.70115990     1.34870
C1190       C  0.51049808  0.37045219  0.59453592     0.85760
O1191       O  0.49486445  0.37316002  0.72615212    -0.78300
O1192       O  0.48420815  0.32356907  0.71492865    -0.88570
C1193       C  0.53165135  0.44576660  0.69370737     0.85340
O1194       O  0.53968621  0.32477879  0.74828125    -0.66770
O1195       O  0.57262760  0.39138434  0.57783562    -0.86060
C1196       C  0.55767271  0.34676096  0.75500497     0.86170
C1197       C  0.47709955  0.34995429  0.72776117     1.07740
H1198       H  0.57946872  0.39504049  0.67229870     0.39540
O1199       O  0.56068524  0.38945070  0.65890765    -1.08720
O1200       O  0.53340251  0.35277690  0.59833730    -0.65370
Ni1201     Ni  0.56213883  0.34937788  0.64187912     1.26350
O1202       O  0.55879371  0.36989204  0.73318202    -0.65600
O1203       O  0.59676125  0.35782397  0.61373460    -0.77890
C1204       C  0.57346826  0.29124823  0.65464429     0.85550
O1205       O  0.56567043  0.30849410  0.62774200    -0.65070
Ni1206     Ni  0.55227610  0.41697281  0.61844899     1.27450
Ni1207     Ni  0.52868522  0.38185895  0.69364237     1.26060
H1208       H  0.50866412  0.34344559  0.65620489     0.40090
O1209       O  0.05755729  0.33047177  0.82865839    -0.79860
O1210       O  0.18660409  0.26828269  0.86485157    -0.64550
O1211       O  0.11889619  0.31658714  0.83797113    -1.11150
C1212       C  0.11866397  0.24687624  0.73498168     1.07030
O1213       O  0.20425967  0.28457424  0.80922998    -0.77760
O1214       O  0.16808645  0.29636893  0.73614856    -0.65340
Ni1215     Ni  0.08595669  0.32276952  0.87039105     1.34870
C1216       C  0.15091129  0.31931191  0.74083457     0.85760
O1217       O  0.16079108  0.31749209  0.89741657    -0.78300
O1218       O  0.11299439  0.31735904  0.91297410    -0.88570
C1219       C  0.20890072  0.27729576  0.84477637     0.85340
O1220       O  0.07814415  0.28015433  0.86751950    -0.66770
O1221       O  0.14628069  0.24035924  0.74410620    -0.86060
C1222       C  0.09438826  0.26040814  0.88482718     0.86170
C1223       C  0.13867917  0.33064546  0.91299170     1.07740
H1224       H  0.13292179  0.24888991  0.81641230     0.39540
O1225       O  0.14169878  0.26838169  0.81026367    -1.08720
O1226       O  0.14018470  0.32246810  0.77299366    -0.65370
Ni1227     Ni  0.11143335  0.29489328  0.79238127     1.26350
O1228       O  0.12406598  0.26278853  0.88548515    -0.65600
O1229       O  0.10492873  0.27086112  0.74634602    -0.77890
C1230       C  0.05952285  0.33212017  0.79219001     0.85550
O1231       O  0.08250633  0.32285728  0.77449411    -0.65070
Ni1232     Ni  0.17454264  0.26350849  0.77503283     1.27450
Ni1233     Ni  0.15097137  0.29094745  0.85500208     1.26060
H1234       H  0.12822018  0.33584818  0.83278656     0.40090
O1235       O  0.98887943  0.25402629  0.83291052    -0.79860
O1236       O  0.85706087  0.25404564  0.86250788    -0.64550
O1237       O  0.93120151  0.22625342  0.82435835    -1.11150
C1238       C  0.91258805  0.29280468  0.72656924     1.07030
O1239       O  0.83309945  0.24573355  0.80616383    -0.77760
O1240       O  0.87142385  0.22091679  0.74807375    -0.65340
Ni1241     Ni  0.96607963  0.22148852  0.85625858     1.34870
C1242       C  0.89791040  0.21157353  0.73869250     0.85760
O1243       O  0.89657858  0.21055115  0.88518615    -0.78300
O1244       O  0.94317362  0.18953187  0.87843954    -0.88570
C1245       C  0.83263669  0.25001822  0.84286130     0.85340
O1246       O  0.95641054  0.24862731  0.89761471    -0.66770
O1247       O  0.88529806  0.28155003  0.72672623    -0.86060
C1248       C  0.93875172  0.27136003  0.89862609     0.86170
C1249       C  0.91492150  0.18804483  0.88733550     1.07740
H1250       H  0.89447657  0.28775820  0.81181477     0.39540
O1251       O  0.89391312  0.26687475  0.80310816    -1.08720
O1252       O  0.92186514  0.22588113  0.74862328    -0.65370
Ni1253     Ni  0.93296318  0.25541160  0.78671753     1.26350
O1254       O  0.91488048  0.27255669  0.87686033    -0.65600
O1255       O  0.93350632  0.28563368  0.75019949    -0.77890
C1256       C  0.98952995  0.25872998  0.79698409     0.85550
O1257       O  0.97250040  0.24370146  0.77488032    -0.65070
Ni1258     Ni  0.86110328  0.26176815  0.76691856     1.27450
Ni1259     Ni  0.89495765  0.24023687  0.84532331     1.26060
H1260       H  0.92689699  0.20674673  0.81257297     0.40090
O1261       O  0.98976628  0.22530224  0.52543047    -0.79860
O1262       O  0.01448725  0.09717982  0.51532870    -0.64550
O1263       O  0.97235895  0.16648234  0.54445582    -1.11150
C1264       C  0.04358001  0.16865501  0.64282388     1.07030
O1265       O  0.00306041  0.07875773  0.57273742    -0.77760
O1266       O  0.97696750  0.11796088  0.62936784    -0.65340
Ni1267     Ni  0.95968426  0.19512104  0.50830027     1.34870
C1268       C  0.96454582  0.14373473  0.63552589     0.85760
O1269       O  0.96402807  0.12466417  0.98652320    -0.78300
O1270       O  0.93155609  0.16411131  0.99192403    -0.88570
C1271       C  0.00952967  0.07486104  0.53699342     0.85340
O1272       O  0.98562687  0.18401634  0.46681626    -0.66770
O1273       O  0.03653344  0.14026307  0.64558462    -0.86060
C1274       C  0.01354715  0.17682411  0.97008980     0.86170
C1275       C  0.93754581  0.13660281  0.98184506     1.07740
H1276       H  0.04005153  0.14274982  0.56231242     0.39540
O1277       O  0.01919480  0.13998914  0.57021643    -1.08720
O1278       O  0.97482523  0.16760366  0.62092813    -0.65370
Ni1279     Ni  0.00188229  0.17763591  0.58115863     1.26350
O1280       O  0.02138848  0.15669818  0.49469756    -0.65600
O1281       O  0.03241134  0.18632311  0.61774275    -0.77890
C1282       C  0.99761259  0.23020902  0.56030627     0.85550
O1283       O  0.98466658  0.21582969  0.58599680    -0.65070
Ni1284     Ni  0.01805050  0.11059568  0.60921587     1.27450
Ni1285     Ni  0.99334498  0.13258282  0.52722783     1.26060
H1286       H  0.95433536  0.15934296  0.55716365     0.40090
O1287       O  0.08880125  0.31438918  0.53685336    -0.79860
O1288       O  0.02060785  0.43997832  0.52084942    -0.64550
O1289       O  0.06678651  0.37095113  0.54353437    -1.11150
C1290       C  0.98955206  0.35971286  0.62979905     1.07030
O1291       O  0.03333990  0.45506105  0.58001582    -0.77760
O1292       O  0.06112433  0.40856219  0.62874812    -0.65340
Ni1293     Ni  0.07982303  0.34678890  0.50214023     1.34870
C1294       C  0.07090923  0.38140002  0.63361891     0.85760
O1295       O  0.07360122  0.42082659  0.99653397    -0.78300
O1296       O  0.07378323  0.37813665  0.96524506    -0.88570
C1297       C  0.02538473  0.46109913  0.54487735     0.85340
O1298       O  0.03824941  0.33465687  0.49472918    -0.66770
O1299       O  0.00050037  0.38616711  0.63952004    -0.86060
C1300       C  0.01609573  0.35229628  0.98634489     0.86170
C1301       C  0.08479789  0.40436587  0.97139116     1.07740
H1302       H  0.99629790  0.39291642  0.55676298     0.39540
O1303       O  0.01703908  0.39382630  0.56683422    -1.08720
O1304       O  0.05677913  0.35939225  0.61816739    -0.65370
Ni1305     Ni  0.03316251  0.35520820  0.57183223     1.26350
O1306       O  0.01818673  0.38165107  0.49171133    -0.65600
O1307       O  0.99927472  0.34428592  0.60137427    -0.77890
C1308       C  0.07294905  0.30378045  0.56374582     0.85550
O1309       O  0.04819841  0.31570000  0.57444415    -0.65070
Ni1310     Ni  0.01924459  0.41926910  0.61030699     1.27450
Ni1311     Ni  0.04384506  0.40568619  0.53001305     1.26060
H1312       H  0.08413828  0.37682377  0.55949842     0.40090
C1313       C  0.05275425  0.23691674  0.54596587     0.24630
C1314       C  0.02794748  0.24247145  0.57004528    -0.23480
C1315       C  0.03449789  0.25525662  0.60651300     0.19530
C1316       C  0.06339476  0.26829821  0.61342171     0.24570
C1317       C  0.08080566  0.27446867  0.58093494    -0.23430
C1318       C  0.08050684  0.25173665  0.55305267     0.19470
F1319       F  0.10283381  0.25031891  0.52676836    -0.13380
F1320       F  0.05050325  0.21696808  0.51678877    -0.15750
F1321       F  0.06864967  0.28430708  0.64625144    -0.15750
F1322       F  0.01291012  0.25682693  0.63378578    -0.13380
C1323       C  0.91396506  0.16778776  0.64865005     0.24630
C1324       C  0.93801718  0.14875519  0.66141207    -0.23480
C1325       C  0.94169481  0.14468939  0.70109866     0.19530
C1326       C  0.92464637  0.16215305  0.72710088     0.24570
C1327       C  0.90332523  0.18404399  0.71416391    -0.23430
C1328       C  0.89686867  0.18516026  0.67464110     0.19470
F1329       F  0.87703103  0.20613853  0.66077321    -0.13380
F1330       F  0.90952861  0.17242627  0.61058222    -0.15750
F1331       F  0.93157772  0.16020495  0.76503902    -0.15750
F1332       F  0.96467047  0.12702022  0.71480628    -0.13380
C1333       C  0.88213255  0.15738599  0.93052277     0.24630
C1334       C  0.90405530  0.15883434  0.90166927    -0.23480
C1335       C  0.92150538  0.13259808  0.89431086     0.19530
C1336       C  0.92475290  0.11123031  0.92333909     0.24570
C1337       C  0.91384717  0.11983658  0.95915453    -0.23430
C1338       C  0.88549929  0.13472248  0.95813881     0.19470
F1339       F  0.86866981  0.13618268  0.99024223    -0.13380
F1340       F  0.86192035  0.18012176  0.93604462    -0.15750
F1341       F  0.94659295  0.08962814  0.92055768    -0.15750
F1342       F  0.93913241  0.13047609  0.86289014    -0.13380
C1343       C  0.92600553  0.30624905  0.66016222     0.24630
C1344       C  0.92248048  0.31506401  0.69833850    -0.23480
C1345       C  0.93817110  0.34099168  0.71243846     0.19530
C1346       C  0.95924372  0.35616034  0.68996482     0.24570
C1347       C  0.96485198  0.34588850  0.65258753    -0.23430
C1348       C  0.94685767  0.32162601  0.63731012     0.19470
F1349       F  0.95025448  0.31185138  0.60069520    -0.13860
F1350       F  0.91161042  0.28098494  0.64617509    -0.15750
F1351       F  0.97567991  0.37942882  0.70595035    -0.15750
F1352       F  0.93536313  0.34970263  0.74959212    -0.13380
C1353       C  0.95892156  0.28919479  0.96293105     0.24630
C1354       C  0.94811196  0.29674390  0.92604334    -0.23480
C1355       C  0.95339921  0.32682404  0.91380655     0.19530
C1356       C  0.97374903  0.34648364  0.93461047     0.24570
C1357       C  0.98807103  0.33689667  0.96898403    -0.23430
C1358       C  0.97866142  0.30875760  0.98392184     0.19470
F1359       F  0.99001802  0.29936920  0.01826636    -0.13380
F1360       F  0.95131303  0.26198160  0.97803243    -0.15750
F1361       F  0.98120715  0.37377698  0.91960825    -0.15750
F1362       F  0.93999469  0.33681475  0.88099869    -0.13380
C1363       C  0.11722551  0.34809315  0.64571790     0.24630
C1364       C  0.09870288  0.37263038  0.65781974    -0.23480
C1365       C  0.10328582  0.38307168  0.69558327     0.19530
C1366       C  0.12337243  0.36776211  0.72112854     0.24570
C1367       C  0.13902594  0.34082600  0.71017112    -0.23430
C1368       C  0.13660692  0.33219116  0.67143978     0.19470
F1369       F  0.15101429  0.30690149  0.65893659    -0.13380
F1370       F  0.11548191  0.33841626  0.60886656    -0.15750
F1371       F  0.12569023  0.37820610  0.75776185    -0.15750
F1372       F  0.08641409  0.40648272  0.70889420    -0.13380
C1373       C  0.15112138  0.37343109  0.95700216     0.24630
C1374       C  0.14006789  0.36327212  0.92119652    -0.23480
C1375       C  0.12261157  0.38345803  0.89829393     0.19530
C1376       C  0.11168917  0.41012453  0.91422791     0.24570
C1377       C  0.11341503  0.41287794  0.95379480    -0.23430
C1378       C  0.13871586  0.39983863  0.97272913     0.19470
F1379       F  0.14438506  0.40640889  0.01023444    -0.13380
F1380       F  0.16945987  0.35554184  0.97888280    -0.15750
F1381       F  0.09041308  0.42625694  0.89432373    -0.15750
F1382       F  0.11133731  0.37570357  0.86334422    -0.13380
C1383       C  0.04701983  0.24561303  0.91947567     0.24630
C1384       C  0.07625468  0.23695275  0.90715466    -0.23480
C1385       C  0.08563025  0.20699968  0.91621387     0.19530
C1386       C  0.06585703  0.18661460  0.93609941     0.24570
C1387       C  0.03604965  0.19551964  0.94675318    -0.23430
C1388       C  0.02762773  0.22556309  0.93797402     0.19470
F1389       F  0.00079933  0.23689147  0.94985541    -0.13380
F1390       F  0.03698268  0.27453357  0.91500177    -0.15750
F1391       F  0.07576023  0.15828168  0.94447629    -0.15750
F1392       F  0.11354032  0.19727065  0.90549225    -0.13380
C1393       C  0.07754599  0.20815803  0.72912411     0.24630
C1394       C  0.10115694  0.22472405  0.71208332    -0.23480
C1395       C  0.10824081  0.21929439  0.67385657     0.19530
C1396       C  0.09070459  0.19870542  0.65213602     0.24570
C1397       C  0.06622971  0.18295420  0.66862428    -0.23430
C1398       C  0.06016913  0.18721249  0.70746961     0.19470
F1399       F  0.03624860  0.17275951  0.72360418    -0.13380
F1400       F  0.07109876  0.21268634  0.76657889    -0.15750
F1401       F  0.09646381  0.19530218  0.61429894    -0.15750
F1402       F  0.13103570  0.23506645  0.65713213    -0.13380
C1403       C  0.02877444  0.31766779  0.73845225     0.24630
C1404       C  0.03189176  0.33893094  0.76869430    -0.23480
C1405       C  0.00593512  0.34172754  0.79104014     0.19530
C1406       C  0.99205964  0.31449730  0.80143418     0.24570
C1407       C  0.00040774  0.28750193  0.78269685    -0.23430
C1408       C  0.01564849  0.28965139  0.74774026     0.19470
F1409       F  0.01990649  0.26487949  0.72512062    -0.13380
F1410       F  0.04708396  0.31950800  0.70770664    -0.15750
F1411       F  0.97197033  0.31403215  0.83018278    -0.15750
F1412       F  0.00164005  0.36712492  0.81240738    -0.13380
C1413       C  0.57096668  0.23218382  0.69711310     0.24630
C1414       C  0.54464029  0.22564915  0.67403768    -0.23480
C1415       C  0.54671097  0.22929013  0.63378028     0.19530
C1416       C  0.57130365  0.24568987  0.61955156     0.24570
C1417       C  0.58870462  0.26226291  0.64648692    -0.23430
C1418       C  0.59568472  0.24683451  0.68032958     0.19470
F1419       F  0.61951847  0.25645575  0.70284855    -0.13380
F1420       F  0.57189217  0.22791035  0.73541671    -0.15750
F1421       F  0.57108620  0.25366354  0.58212417    -0.15750
F1422       F  0.52402253  0.22012620  0.60908345    -0.13380
C1423       C  0.24393064  0.27633300  0.90378952     0.24630
C1424       C  0.23963994  0.28156692  0.86402761    -0.23480
C1425       C  0.26505124  0.29120011  0.84322082     0.19530
C1426       C  0.29393858  0.29407363  0.86099261     0.24570
C1427       C  0.29848802  0.28730591  0.90016568    -0.23430
C1428       C  0.27296491  0.27920726  0.92153961     0.19470
F1429       F  0.27633072  0.27235737  0.95918544    -0.13380
F1430       F  0.22019733  0.26773228  0.92568749    -0.15750
F1431       F  0.31776539  0.30297858  0.83938548    -0.15750
F1432       F  0.26230208  0.29726471  0.80528742    -0.13380
C1433       C  0.43608295  0.35730090  0.53441879     0.24630
C1434       C  0.43005053  0.32630724  0.54140327    -0.23480
C1435       C  0.44864774  0.31166983  0.56877608     0.19530
C1436       C  0.47413913  0.32614719  0.58568400     0.24570
C1437       C  0.48111041  0.35687097  0.57816189    -0.23430
C1438       C  0.46083888  0.37267603  0.55346034     0.19470
F1439       F  0.46653451  0.40215212  0.54505958    -0.13380
F1440       F  0.41964524  0.37199588  0.50702131    -0.15750
F1441       F  0.49302367  0.30901642  0.60780648    -0.15750
F1442       F  0.44433842  0.28163877  0.57562432    -0.13380
C1443       C  0.42591056  0.32991222  0.74606415     0.24630
C1444       C  0.44826620  0.35301362  0.74859914    -0.23480
C1445       C  0.44554716  0.37567043  0.77704720     0.19530
C1446       C  0.42615239  0.37079857  0.80755990     0.24570
C1447       C  0.41029084  0.34315008  0.80981040    -0.23430
C1448       C  0.40625074  0.32548904  0.77646102     0.19470
F1449       F  0.38887784  0.29984834  0.77693480    -0.13380
F1450       F  0.42566596  0.30939835  0.71681252    -0.15750
F1451       F  0.42832380  0.38942061  0.83867684    -0.15750
F1452       F  0.46479567  0.39995771  0.77876696    -0.13380
C1453       C  0.40746452  0.19112742  0.57359320     0.24630
C1454       C  0.42047558  0.19539055  0.53773102    -0.23480
C1455       C  0.44218078  0.17388325  0.52510391     0.19530
C1456       C  0.45417605  0.15202674  0.55004677     0.24570
C1457       C  0.44383948  0.15037287  0.58758839    -0.23430
C1458       C  0.41866892  0.16852280  0.59798541     0.19470
F1459       F  0.40676214  0.16627256  0.63343361    -0.13380
F1460       F  0.38544687  0.21006267  0.58626638    -0.15750
F1461       F  0.47781139  0.13458909  0.53856841    -0.15750
F1462       F  0.45274307  0.17462802  0.48888893    -0.13380
C1463       C  0.43070556  0.21307057  0.79047296     0.24630
C1464       C  0.42715144  0.21416080  0.83022713    -0.23480
C1465       C  0.43732591  0.18942606  0.85230166     0.19530
C1466       C  0.45582141  0.16700023  0.83583519     0.24570
C1467       C  0.46328559  0.16877067  0.79709831    -0.23430
C1468       C  0.44800107  0.19003780  0.77390891     0.19470
F1469       F  0.45334633  0.19104896  0.73582650    -0.13380
F1470       F  0.42050226  0.23623698  0.76835180    -0.15750
F1471       F  0.46948917  0.14602958  0.85855511    -0.15750
F1472       F  0.43363641  0.18963918  0.89078891    -0.13380
C1473       C  0.77661004  0.24221371  0.92488457     0.24630
C1474       C  0.74849031  0.25041619  0.90770012    -0.23480
C1475       C  0.74850274  0.25855159  0.86842116     0.19530
C1476       C  0.77543942  0.25780772  0.84718610     0.24570
C1477       C  0.80335650  0.24938089  0.86441715    -0.23430
C1478       C  0.80352515  0.24187094  0.90372020     0.19470
F1479       F  0.82981854  0.23347622  0.92187254    -0.13380
F1480       F  0.77820524  0.23374482  0.96212337    -0.15750
F1481       F  0.77420813  0.26602967  0.80984107    -0.15750
F1482       F  0.72234801  0.26706185  0.84998302    -0.13380
C1483       C  0.61109885  0.13867906  0.55816167     0.24630
C1484       C  0.62679638  0.16605029  0.56878644    -0.23480
C1485       C  0.61935468  0.17932358  0.60403169     0.19530
C1486       C  0.59528485  0.16722867  0.62583207     0.24570
C1487       C  0.57700943  0.14257982  0.61226687    -0.23430
C1488       C  0.58635275  0.12762070  0.57906355     0.19470
F1489       F  0.57041413  0.10313826  0.56545730    -0.13380
F1490       F  0.61838270  0.12337570  0.52572212    -0.15750
F1491       F  0.59039241  0.17922254  0.66075509    -0.15750
F1492       F  0.63432774  0.20466883  0.61664190    -0.13380
C1493       C  0.63416339  0.14844899  0.78398205     0.24630
C1494       C  0.60876817  0.13200575  0.79723308    -0.23480
C1495       C  0.60839384  0.12403256  0.83585704     0.19530
C1496       C  0.62713411  0.14023173  0.86183479     0.24570
C1497       C  0.64391146  0.16536431  0.84867647    -0.23430
C1498       C  0.65124209  0.16625510  0.81000180     0.19470
F1499       F  0.66920534  0.18892767  0.79682201    -0.13380
F1500       F  0.63664571  0.15399111  0.74599992    -0.15750
F1501       F  0.62228981  0.13715855  0.89986208    -0.15750
F1502       F  0.58551281  0.10636376  0.84919967    -0.13380
C1503       C  0.59728817  0.30197425  0.51794689     0.24630
C1504       C  0.62838448  0.29439596  0.52333344    -0.23480
C1505       C  0.64811349  0.31693141  0.53921503     0.19530
C1506       C  0.63668432  0.34481436  0.55239149     0.24570
C1507       C  0.60525320  0.35143757  0.54985587    -0.23430
C1508       C  0.58602094  0.33023670  0.53054498     0.19470
F1509       F  0.55554598  0.33543532  0.52754576    -0.13380
F1510       F  0.57739226  0.28167392  0.00172273    -0.15750
F1511       F  0.65592419  0.36405420  0.57181445    -0.15750
F1512       F  0.67831346  0.31121038  0.54490052    -0.13380
C1513       C  0.57515957  0.31856130  0.85174633     0.24630
C1514       C  0.60371447  0.30471906  0.84594735    -0.23480
C1515       C  0.62072244  0.31367630  0.81420904     0.19530
C1516       C  0.60746943  0.33269879  0.78613973     0.24570
C1517       C  0.57724468  0.34312006  0.78973614    -0.23430
C1518       C  0.56215305  0.33747967  0.82403754     0.19470
F1519       F  0.53278505  0.34660632  0.82814312    -0.13380
F1520       F  0.55829108  0.31122745  0.88257457    -0.15750
F1521       F  0.62254346  0.33756166  0.75320715    -0.15750
F1522       F  0.64851557  0.30129312  0.80807416    -0.13380
C1523       C  0.52383219  0.18829193  0.99595451     0.24630
C1524       C  0.53721101  0.17208727  0.96611660    -0.23480
C1525       C  0.51989117  0.16990337  0.93206042     0.19530
C1526       C  0.50579404  0.19657698  0.91999409     0.24570
C1527       C  0.50164638  0.22026126  0.94669040    -0.23430
C1528       C  0.50814060  0.21461836  0.98592411     0.19470
F1529       F  0.50170055  0.23516126  0.01378534    -0.13380
F1530       F  0.53429219  0.18494070  0.03253226    -0.15750
F1531       F  0.49931610  0.20031712  0.88229061    -0.15750
F1532       F  0.52674731  0.14836621  0.90564495    -0.13380
C1533       C  0.51468013  0.99297104  0.79699428     0.24630
C1534       C  0.53393841  0.97088744  0.78185686    -0.23480
C1535       C  0.54941128  0.97696385  0.74777072     0.19530
C1536       C  0.54512544  0.00445837  0.72862044     0.24570
C1537       C  0.52511131  0.02627824  0.74313787    -0.23430
C1538       C  0.51022889  0.02037060  0.77783823     0.19470
F1539       F  0.49017986  0.04061231  0.79240559    -0.13380
F1540       F  0.49831632  0.98706247  0.82868377    -0.15750
F1541       F  0.56067676  0.00978082  0.69613982    -0.15750
F1542       F  0.56802384  0.95573964  0.73243572    -0.13380
C1543       C  0.51255629  0.52746138  0.72262536     0.24630
C1544       C  0.51808291  0.52740021  0.76286948    -0.23480
C1545       C  0.52892595  0.50054220  0.77942917     0.19530
C1546       C  0.53398826  0.47463598  0.75677812     0.24570
C1547       C  0.52803151  0.47452537  0.71662378    -0.23430
C1548       C  0.51753514  0.50148378  0.69995738     0.19470
F1549       F  0.51110660  0.50256654  0.66182280    -0.13380
F1550       F  0.50137001  0.55250019  0.70494627    -0.15750
F1551       F  0.54515389  0.44961312  0.77452682    -0.15750
F1552       F  0.53514515  0.49933005  0.81760924    -0.13380
C1553       C  0.46121671  0.74382108  0.87859150     0.24630
C1554       C  0.43950466  0.73327374  0.85140684    -0.23480
C1555       C  0.43248646  0.75342123  0.82191075     0.19530
C1556       C  0.45724224  0.76841697  0.80596683     0.24570
C1557       C  0.48579773  0.76795260  0.82552744    -0.23430
C1558       C  0.48692158  0.75812479  0.86390168     0.19470
F1559       F  0.51320567  0.75941436  0.88527173    -0.13380
F1560       F  0.46349876  0.73049715  0.91342487    -0.15750
F1561       F  0.45393674  0.78088748  0.77085512    -0.15750
F1562       F  0.40618167  0.74991707  0.80107818    -0.13380
C1563       C  0.40867709  0.83109598  0.94222580     0.24630
C1564       C  0.41679379  0.80450650  0.96181881    -0.23480
C1565       C  0.44703228  0.79406399  0.95984985     0.19530
C1566       C  0.46877659  0.80977150  0.93916457     0.24570
C1567       C  0.46083743  0.83603453  0.91901637    -0.23430
C1568       C  0.43055512  0.84666168  0.92059759     0.19470
F1569       F  0.42210594  0.87171703  0.90079931    -0.13380
F1570       F  0.38004641  0.84242882  0.94501367    -0.15750
F1571       F  0.49801878  0.79966566  0.93955815    -0.15750
F1572       F  0.45589445  0.76898704  0.97934274    -0.13380
C1573       C  0.40993210  0.81814441  0.71078893     0.24630
C1574       C  0.40928872  0.81095454  0.67143455    -0.23480
C1575       C  0.43069487  0.82564605  0.64816709     0.19530
C1576       C  0.45602138  0.84100009  0.66466543     0.24570
C1577       C  0.45906296  0.84419806  0.70457361    -0.23430
C1578       C  0.43426618  0.83537635  0.72708793     0.19470
F1579       F  0.43588879  0.83933256  0.76565725    -0.13380
F1580       F  0.38980108  0.80451352  0.73423968    -0.15750
F1581       F  0.47927647  0.84962250  0.64199025    -0.15750
F1582       F  0.43055654  0.81976161  0.60995415    -0.13380
C1583       C  0.43988877  0.68018014  0.98769961     0.24630
C1584       C  0.40760915  0.68398141  0.98788007    -0.23480
C1585       C  0.38999473  0.66226828  0.96703060     0.19530
C1586       C  0.40406954  0.63939839  0.94474805     0.24570
C1587       C  0.43628151  0.63678052  0.94297845    -0.23430
C1588       C  0.45382919  0.65705662  0.96585989     0.19470
F1589       F  0.48478243  0.65654774  0.96411725    -0.13380
F1590       F  0.45848694  0.69994686  0.00712170    -0.15750
F1591       F  0.38604475  0.62091694  0.92252562    -0.15750
F1592       F  0.35905720  0.66416949  0.96613779    -0.13380
C1593       C  0.40273381  0.65268739  0.65598061     0.24630
C1594       C  0.38099399  0.66823515  0.67769680    -0.23480
C1595       C  0.37811703  0.66121532  0.71642514     0.19530
C1596       C  0.40073409  0.64410733  0.73477899     0.24570
C1597       C  0.42683835  0.63552339  0.71463560    -0.23430
C1598       C  0.42618315  0.63685980  0.67463762     0.19470
F1599       F  0.45089796  0.62804442  0.65462084    -0.13380
F1600       F  0.40496157  0.65800804  0.61796423    -0.15750
F1601       F  0.40061487  0.64209021  0.77354533    -0.15750
F1602       F  0.35680153  0.67543201  0.73769276    -0.13380
C1603       C  0.58387647  0.62955585  0.90514346     0.24630
C1604       C  0.55936311  0.64658818  0.88989055    -0.23480
C1605       C  0.56339131  0.67832233  0.88692240     0.19530
C1606       C  0.59003938  0.69269994  0.90139530     0.24570
C1607       C  0.61295875  0.67601939  0.92045687    -0.23430
C1608       C  0.61010494  0.64414516  0.92065396     0.19470
F1609       F  0.63122742  0.62735829  0.93987533    -0.13380
F1610       F  0.58140266  0.59895977  0.90832276    -0.15750
F1611       F  0.59156223  0.72349106  0.90125928    -0.15750
F1612       F  0.54088957  0.69586717  0.87178182    -0.13380
C1613       C  0.59008062  0.66917084  0.64956686     0.24630
C1614       C  0.60934510  0.69367249  0.66086489    -0.23480
C1615       C  0.60949080  0.70265548  0.69961527     0.19530
C1616       C  0.58833759  0.69042778  0.72500389     0.24570
C1617       C  0.56664599  0.66858426  0.71249658    -0.23430
C1618       C  0.56878720  0.65685466  0.67508386     0.19470
F1619       F  0.54807703  0.63598395  0.66191648    -0.13380
F1620       F  0.58897895  0.65989021  0.61243063    -0.15750
F1621       F  0.58735197  0.70183291  0.76118412    -0.15750
F1622       F  0.62727517  0.72641155  0.71155720    -0.13380
C1623       C  0.62992418  0.81371082  0.92170212     0.24630
C1624       C  0.61626174  0.80073479  0.95392245    -0.23480
C1625       C  0.58934277  0.81432898  0.96727743     0.19530
C1626       C  0.57514799  0.83821785  0.94751046     0.24570
C1627       C  0.58682605  0.84884026  0.91297850    -0.23430
C1628       C  0.61505758  0.83705910  0.90104466     0.19470
F1629       F  0.62691815  0.84641498  0.86754782    -0.13380
F1630       F  0.65625453  0.80203377  0.90821533    -0.15750
F1631       F  0.54769629  0.84831311  0.95962750    -0.15750
F1632       F  0.57578563  0.80381277  0.99886267    -0.13380
C1633       C  0.63446496  0.83429120  0.66283279     0.24630
C1634       C  0.61661856  0.83030300  0.62931050    -0.23480
C1635       C  0.59482056  0.85252597  0.61960811     0.19530
C1636       C  0.58533043  0.87301940  0.64754897     0.24570
C1637       C  0.59687939  0.86998318  0.68492931    -0.23430
C1638       C  0.62513476  0.85534276  0.69031311     0.19470
F1639       F  0.63836761  0.85464621  0.72579744    -0.13380
F1640       F  0.65704580  0.81447781  0.67201493    -0.15750
F1641       F  0.55980403  0.88966671  0.64081716    -0.15750
F1642       F  0.57936819  0.85114584  0.58550380    -0.13380
C1643       C  0.50723222  0.76128014  0.58641318     0.24630
C1644       C  0.48500817  0.74253634  0.60171501    -0.23480
C1645       C  0.48766015  0.71097262  0.59817094     0.19530
C1646       C  0.50668963  0.69919550  0.57052370     0.24570
C1647       C  0.52394197  0.71903370  0.54832730    -0.23430
C1648       C  0.52244915  0.75045420  0.55494446     0.19470
F1649       F  0.53972767  0.76998754  0.53485295    -0.13380
F1650       F  0.50670677  0.79167951  0.59330970    -0.15750
F1651       F  0.50978952  0.66864523  0.06678381    -0.15750
F1652       F  0.46835847  0.69208506  0.61651345    -0.13380
C1653       C  0.98190453  0.99604324  0.00953241     0.24630
C1654       C  0.99994188  0.98899191  0.97767131    -0.23480
C1655       C  0.02167588  0.01025572  0.96593630     0.19530
C1656       C  0.02551916  0.03782925  0.48599902     0.24570
C1657       C  0.00773205  0.04452651  0.51832539    -0.23430
C1658       C  0.98581052  0.02334468  0.52963236     0.19470
F1659       F  0.96738095  0.02939436  0.55948946    -0.13380
F1660       F  0.96025323  0.97638492  0.02141274    -0.15750
F1661       F  0.04716555  0.05772416  0.47437254    -0.15750
F1662       F  0.04015506  0.00375117  0.93630205    -0.13380
C1663       C  0.05103079  0.50999347  0.52672954     0.24630
C1664       C  0.02443109  0.49204663  0.52850452    -0.23480
C1665       C  0.99902750  0.49980275  0.50514294     0.19530
C1666       C  0.00020443  0.52450271  0.98017541     0.24570
C1667       C  0.02689903  0.54208271  0.97786683    -0.23430
C1668       C  0.05203309  0.53499865  0.00205781     0.19470
F1669       F  0.07762945  0.55256474  0.00184399    -0.13380
F1670       F  0.07636991  0.50248489  0.54754398    -0.15750
F1671       F  0.97491929  0.53193760  0.95919868    -0.15750
F1672       F  0.97307889  0.48277407  0.50585251    -0.13380
C1673       C  0.96749628  0.74014214  0.96454129     0.24630
C1674       C  0.98782153  0.74115514  0.93391402    -0.23480
C1675       C  0.97607014  0.74943573  0.89738234     0.19530
C1676       C  0.94700932  0.76251304  0.89466486     0.24570
C1677       C  0.93300240  0.77049985  0.92915171    -0.23430
C1678       C  0.93772863  0.75065121  0.95948745     0.19470
F1679       F  0.91908172  0.75164762  0.99000569    -0.13380
F1680       F  0.97713974  0.73205722  0.99980556    -0.15750
F1681       F  0.93825267  0.77624240  0.86159639    -0.15750
F1682       F  0.99325060  0.74742246  0.86555028    -0.13380
C1683       C  0.73884300  0.76134417  0.62749545     0.24630
C1684       C  0.73801068  0.75968088  0.58680055    -0.23480
C1685       C  0.76539866  0.76447783  0.56746375     0.19530
C1686       C  0.79287146  0.76951722  0.58806127     0.24570
C1687       C  0.79368387  0.76980820  0.62859884    -0.23430
C1688       C  0.76621616  0.76628874  0.64787967     0.19470
F1689       F  0.76584624  0.76634482  0.68673417    -0.13380
F1690       F  0.71324237  0.75758926  0.64829658    -0.15750
F1691       F  0.81875239  0.77405708  0.56809499    -0.15750
F1692       F  0.76583072  0.76394313  0.52864140    -0.13380
C1693       C  0.90949619  0.70878034  0.83151534     0.24630
C1694       C  0.91199064  0.70868340  0.79184344    -0.23480
C1695       C  0.92953266  0.68609019  0.77398486     0.19530
C1696       C  0.94882813  0.66744076  0.79568693     0.24570
C1697       C  0.94970420  0.67059797  0.83554369    -0.23430
C1698       C  0.92792661  0.68945513  0.85331605     0.19470
F1699       F  0.92655175  0.69118872  0.89207537    -0.13380
F1700       F  0.89162562  0.72944836  0.84920238    -0.15750
F1701       F  0.96860397  0.64876974  0.77773434    -0.15750
F1702       F  0.92947575  0.68374062  0.73525386    -0.13380
C1703       C  0.00007529  0.70439850  0.58239960     0.24630
C1704       C  0.98926834  0.68553009  0.55245788    -0.23480
C1705       C  0.95724902  0.68558293  0.54464830     0.19530
C1706       C  0.93782484  0.70675273  0.56345883     0.24570
C1707       C  0.95025712  0.72859943  0.58947355    -0.23430
C1708       C  0.98160765  0.72628662  0.59885831     0.19470
F1709       F  0.99541729  0.74636125  0.62307391    -0.13380
F1710       F  0.02979319  0.70354086  0.59386607    -0.15750
F1711       F  0.90769784  0.70766909  0.55358608    -0.15750
F1712       F  0.94530373  0.66766219  0.51624145    -0.13380
C1713       C  0.91049438  0.86643198  0.77537156     0.24630
C1714       C  0.88942078  0.84356847  0.78616592    -0.23480
C1715       C  0.88405208  0.84048187  0.82542895     0.19530
C1716       C  0.90190270  0.85676090  0.85294259     0.24570
C1717       C  0.92579826  0.87662356  0.84212921    -0.23430
C1718       C  0.92848877  0.88263067  0.80290971     0.19470
F1719       F  0.95117946  0.90114817  0.79089503    -0.13380
F1720       F  0.91651959  0.87028966  0.73776319    -0.15750
F1721       F  0.89800339  0.85054934  0.89050718    -0.15750
F1722       F  0.86457306  0.81863046  0.83742304    -0.13380
C1723       C  0.88565015  0.88832004  0.59954448     0.24630
C1724       C  0.88182014  0.85959044  0.58212551    -0.23480
C1725       C  0.87523383  0.85791003  0.54272939     0.19530
C1726       C  0.88154497  0.88344542  0.52060584     0.24570
C1727       C  0.89894378  0.90691759  0.53821204    -0.23430
C1728       C  0.89343551  0.91287260  0.57674871     0.19470
F1729       F  0.90497635  0.93844919  0.59360583    -0.13380
F1730       F  0.88847586  0.89097481  0.63820040    -0.15750
F1731       F  0.88126709  0.88038927  0.48191471    -0.15750
F1732       F  0.86905956  0.83082631  0.52530221    -0.13380
C1733       C  0.26750984  0.72606565  0.63414268     0.24630
C1734       C  0.27167082  0.73923086  0.59792714    -0.23480
C1735       C  0.24835350  0.75706970  0.58221339     0.19530
C1736       C  0.22245783  0.76369822  0.60361587     0.24570
C1737       C  0.21948036  0.75263404  0.64140356    -0.23430
C1738       C  0.24190460  0.73285520  0.65574528     0.19470
F1739       F  0.23955194  0.72052143  0.69102981    -0.13380
F1740       F  0.28948686  0.70811696  0.64981123    -0.15750
F1741       F  0.20103097  0.78217045  0.58777458    -0.15750
F1742       F  0.25183436  0.77029079  0.54762336    -0.13380
C1743       C  0.08463962  0.83047922  0.79863517     0.24630
C1744       C  0.08816370  0.79916616  0.80450373    -0.23480
C1745       C  0.07334481  0.78535970  0.83489981     0.19530
C1746       C  0.05461148  0.80235377  0.85862964     0.24570
C1747       C  0.04967447  0.83360631  0.85188003    -0.23430
C1748       C  0.06543995  0.84753279  0.82187407     0.19470
F1749       F  0.06223155  0.87758109  0.81462512    -0.13380
F1750       F  0.09877327  0.84436075  0.76925021    -0.15750
F1751       F  0.04132626  0.78790744  0.88815495    -0.15750
F1752       F  0.07727176  0.75538028  0.84192925    -0.13380
C1753       C  0.04070489  0.81718258  0.61247193     0.24630
C1754       C  0.06485502  0.80067201  0.59637838    -0.23480
C1755       C  0.06988555  0.80431822  0.55687320     0.19530
C1756       C  0.05027425  0.82251267  0.53390470     0.24570
C1757       C  0.02545237  0.83811687  0.54989850    -0.23430
C1758       C  0.02143081  0.83565513  0.58967967     0.19470
F1759       F  0.99747371  0.84969502  0.60618452    -0.13380
F1760       F  0.03499482  0.81444388  0.65029502    -0.15750
F1761       F  0.05442676  0.82335876  0.49554625    -0.15750
F1762       F  0.09222584  0.78819194  0.53980792    -0.13380
C1763       C  0.11468613  0.65210097  0.59456344     0.24630
C1764       C  0.13303691  0.67602098  0.58120806    -0.23480
C1765       C  0.15225404  0.67066854  0.55028731     0.19530
C1766       C  0.14608196  0.64519348  0.52707498     0.24570
C1767       C  0.11808417  0.63018588  0.53274745    -0.23430
C1768       C  0.10967301  0.62686829  0.57085785     0.19470
F1769       F  0.08773213  0.60643830  0.58006215    -0.13380
F1770       F  0.09816773  0.65522652  0.62676734    -0.15750
F1771       F  0.15974752  0.64283637  0.49271857    -0.15750
F1772       F  0.17240729  0.69213220  0.53891943    -0.13380
C1773       C  0.11616941  0.66228454  0.78220597     0.24630
C1774       C  0.12995992  0.69030707  0.79388440    -0.23480
C1775       C  0.12565920  0.69975583  0.83187635     0.19530
C1776       C  0.10546564  0.68388710  0.85565599     0.24570
C1777       C  0.08907023  0.65772844  0.84253410    -0.23430
C1778       C  0.09598544  0.64634940  0.80609821     0.19470
F1779       F  0.08087600  0.62155846  0.79197909    -0.13380
F1780       F  0.12018504  0.65148254  0.74616331    -0.15750
F1781       F  0.10015519  0.69567546  0.89087249    -0.15750
F1782       F  0.13846487  0.72611755  0.84492558    -0.13380
C1783       C  0.01945774  0.72163129  0.76308029     0.24630
C1784       C  0.01892168  0.69901913  0.73428161    -0.23480
C1785       C  0.99203917  0.69732094  0.71212173     0.19530
C1786       C  0.97844905  0.72477153  0.70227179     0.24570
C1787       C  0.98972118  0.75185092  0.71925934    -0.23430
C1788       C  0.00738395  0.74990832  0.75314258     0.19470
F1789       F  0.01418007  0.77498875  0.77460418    -0.13380
F1790       F  0.03930633  0.71969331  0.79330219    -0.15750
F1791       F  0.95485536  0.72500366  0.67656370    -0.15750
F1792       F  0.98533113  0.67193783  0.69127918    -0.13380
loop_ 
_geom_bond_atom_site_label_1 
_geom_bond_atom_site_label_2 
_geom_bond_distance 
_geom_bond_site_symmetry_2 
_ccdc_geom_bond_type 
O1           Ni7   1.937       .  S
O1           C22   1.285       .  A
O2          Ni25   1.866       .  S
O2           C11   1.266       .  A
O3           Ni7   1.863       .  S
O3          Ni25   1.893       .  S
O3          Ni19   1.872       .  S
O3           H26   0.966       .  S
C4           O21   1.287       .  A
C4           O13   1.281       .  A
C4          C848   1.470       .  S
O5          Ni24   1.973       .  S
O5           C11   1.295       .  A
O6          Ni24   1.999       .  S
O6            C8   1.273       .  A
Ni7          O10   1.917       .  S
Ni7          O12   1.921       .  S
C8           O18   1.239       .  A
C8          C878   1.516       .  S
O9          Ni25   1.893       .  S
O9           C15   1.260       .  A
O10          C15   1.274       .  A
C11         C841   1.491       .  S
O12          C14   1.274       .  A
O13         Ni24   1.912       .  S
C14          O20   1.292       .  A
C14         C858   1.512       .  S
C15         C868   1.451       .  S
H16          O17   0.967       .  S
O17         Ni25   1.875       .  S
O17         Ni19   1.873       .  S
O17         Ni24   1.924       .  S
O18         Ni19   1.890       .  S
Ni19         O23   1.873       .  S
Ni19         O21   1.945       .  S
O20         Ni25   1.997       .  S
C22          O23   1.258       .  A
C22         C888   1.470       .  S
O27         Ni33   1.939       .  S
O27          C48   1.273       .  A
O28         Ni51   1.870       .  S
O28          C37   1.270       .  A
O29         Ni33   1.883       .  S
O29         Ni51   1.877       .  S
O29         Ni45   1.872       .  S
O29          H52   0.966       .  S
C30          O47   1.274       .  A
C30          O39   1.289       .  A
C30         C798   1.466       .  S
O31         Ni50   1.975       .  S
O31          C37   1.295       .  A
O32         Ni50   1.984       .  S
O32          C34   1.282       .  A
Ni33         O36   1.914       .  S
Ni33         O38   1.924       .  S
C34          O44   1.251       .  A
C34         C818   1.506       .  S
O35         Ni51   1.913       .  S
O35          C41   1.273       .  A
O36          C41   1.283       .  A
C37         C791   1.487       .  S
O38          C40   1.272       .  A
O39         Ni50   1.961       .  S
C40          O46   1.284       .  A
C40         C811   1.516       .  S
C41         C828   1.457       .  S
H42          O43   0.967       .  S
O43         Ni51   1.883       .  S
O43         Ni45   1.868       .  S
O43         Ni50   1.893       .  S
O44         Ni45   1.879       .  S
Ni45         O49   1.859       .  S
Ni45         O47   1.879       .  S
O46         Ni51   1.980       .  S
C48          O49   1.241       .  A
C48         C891   1.447       .  S
O53         Ni59   1.939       .  S
O53          C74   1.273       .  A
O54         Ni77   1.858       .  S
O54          C63   1.263       .  A
O55         Ni59   1.878       .  S
O55         Ni77   1.870       .  S
O55         Ni71   1.863       .  S
O55          H78   0.964       .  S
C56          O73   1.269       .  A
C56          O65   1.298       .  A
C56         C801   1.475       .  S
O57         Ni76   2.002       .  S
O57          C63   1.299       .  A
O58         Ni76   1.987       .  S
O58          C60   1.284       .  A
Ni59        O958   1.912       .  S
Ni59        O960   1.918       .  S
C60          O70   1.258       .  A
C60         C881   1.513       .  S
O61        Ni973   1.924   1_554  S
O61          C67   1.279       .  A
O62        Ni955   1.928       .  S
O62          C67   1.288   1_556  A
C63         C771   1.480       .  S
O64        Ni955   1.931   1_554  S
O64          C66   1.275       .  A
O65         Ni76   1.990   1_655  S
C66         O968   1.275       .  A
C66         C808   1.522   1_455  S
C67         C871   1.477       .  S
H68          O69   0.967   1_655  S
O69         Ni77   1.875       .  S
O69         Ni71   1.871       .  S
O69         Ni76   1.880       .  S
O70         Ni71   1.906       .  S
Ni71         O75   1.859       .  S
Ni71         O73   1.851   1_455  S
O72         Ni77   1.971       .  S
O72         C962   1.276       .  A
C74          O75   1.248       .  A
C74         C778   1.464   1_455  S
Ni77        O957   1.915       .  S
O79         Ni85   1.910       .  S
O79         C100   1.270       .  A
O80        Ni103   1.858   1_455  S
O80          C89   1.261   1_455  A
O81         Ni85   1.902       .  S
O81        Ni103   1.898       .  S
O81         Ni97   1.909       .  S
O81         H104   0.965       .  S
C82          O99   1.276       .  A
C82          O91   1.291       .  A
C82         C851   1.490       .  S
O83        Ni102   1.994   1_655  S
O83          C89   1.294       .  A
O84        Ni102   1.975   1_655  S
O84          C86   1.282       .  A
Ni85         O90   1.916       .  S
Ni85        O984   1.896       .  S
C86          O96   1.260       .  A
C86         C821   1.510       .  S
O87        Ni999   1.911   1_554  S
O87          C93   1.246       .  A
O88        Ni981   1.896       .  S
O88          C93   1.258       .  A
C89         C758   1.481       .  S
O90         C988   1.279   1_655  A
O91        Ni102   1.965       .  S
C92         O986   1.279   1_455  A
C92         O994   1.302   1_455  A
C92         C861   1.509       .  S
C93         C831   1.463       .  S
H94          O95   0.967       .  S
O95        Ni103   1.858   1_455  S
O95         Ni97   1.872   1_455  S
O95        Ni102   1.902       .  S
O96         Ni97   1.906       .  S
Ni97        O101   1.873       .  S
Ni97         O99   1.886   1_655  S
O98        Ni103   2.018       .  S
O98         C988   1.302   1_655  A
C100        O101   1.269       .  A
C100        C781   1.468       .  S
Ni103       O983   1.911       .  S
O105       Ni111   1.907       .  S
O105        C126   1.255       .  A
O106       Ni129   1.849       .  S
O106        C115   1.265       .  A
O107       Ni111   1.836       .  S
O107       Ni129   1.826       .  S
O107       Ni123   1.891       .  S
O107        H130   0.960       .  S
C108        O125   1.257       .  A
C108        O117   1.295       .  A
C108        C711   1.482       .  S
O109       Ni128   2.000   1_554  S
O109        C115   1.299       .  A
O110      Ni1024   1.941       .  S
O110        C112   1.278       .  A
Ni111       O114   1.895       .  S
Ni111       O116   1.878       .  S
C112       O1018   1.284       .  A
C112        C728   1.510       .  S
O113       Ni129   1.957       .  S
O113        C119   1.294       .  A
O114        C119   1.286       .  A
C115        C788   1.497       .  S
O116        C118   1.248       .  A
O117      Ni1024   2.014       .  S
C118        O124   1.278       .  A
C118        C718   1.487       .  S
C119        C738   1.471       .  S
H120        O121   0.967       .  S
O121       Ni129   1.912       .  S
O121       Ni123   1.872       .  S
O121       Ni128   1.894   1_554  S
O122       Ni123   1.971   1_556  S
O122       C1008   1.284       .  A
Ni123       O127   1.895       .  S
Ni123      O1021   1.861   1_554  S
O124       Ni129   1.990       .  S
O125      Ni1019   1.861       .  S
C126        O127   1.263       .  A
C126        C751   1.417       .  S
Ni128      O1006   1.941       .  S
Ni128      O1013   2.014       .  S
O131       Ni137   1.808       .  S
O131        C152   1.258       .  A
O132       Ni155   1.843       .  S
O132        C141   1.261       .  A
O133       Ni137   2.070       .  S
O133       Ni155   1.898       .  S
O133       Ni149   2.047       .  S
O133        H156   0.987       .  S
C134        O143   1.289       .  A
C134       O1047   1.261       .  A
C134        C668   1.476       .  S
O135       Ni154   1.995       .  S
O135        C141   1.295       .  A
O136       Ni154   1.970       .  S
O136        C138   1.285       .  A
Ni137       O140   1.880       .  S
Ni137       O142   1.880       .  S
C138        O148   1.274       .  A
C138       C1584   1.532   1_554  S
O139       Ni155   1.931       .  S
O139        C145   1.243       .  A
O140        C145   1.241       .  A
C141        C838   1.475       .  S
O142        C144   1.281       .  A
O143      Ni1050   1.993       .  S
C144        O150   1.311       .  A
C144        C678   1.483       .  S
C145        C698   1.462       .  S
H146        O147   0.967       .  S
O147       Ni155   1.888       .  S
O147       Ni149   1.836       .  S
O147       Ni154   1.909       .  S
O148       Ni149   1.949       .  S
Ni149       O153   1.866       .  S
Ni149       O151   1.872       .  S
O150       Ni155   2.033       .  S
O151       C1030   1.261   1_554  A
C152        O153   1.233       .  A
C152        C748   1.425       .  S
Ni154      O1039   1.993   1_554  S
O157       Ni163   1.992       .  S
O157        C178   1.297       .  A
O158       Ni181   1.858       .  S
O158        C167   1.256       .  A
O159       Ni163   1.903       .  S
O159       Ni181   1.864       .  S
O159       Ni175   1.932       .  S
O159        H182   0.966       .  S
C160        O177   1.288       .  A
C160        O169   1.282       .  A
C160        C721   1.494       .  S
O161       Ni180   1.944       .  S
O161        C167   1.275       .  A
O162       Ni180   1.891       .  S
O162        C164   1.265       .  A
Ni163       O166   2.037       .  S
Ni163       O168   1.921       .  S
C164        O174   1.266       .  A
C164        C701   1.460       .  S
O165       Ni181   1.879       .  S
O165        C171   1.249       .  A
O166        C171   1.295       .  A
C167        C658   1.474       .  S
O168        C170   1.276       .  A
O169       Ni180   1.927       .  S
C170        O176   1.284       .  A
C170        C708   1.503       .  S
C171        C691   1.513       .  S
H172        O173   0.963       .  S
O173       Ni181   1.891       .  S
O173       Ni175   1.878       .  S
O173       Ni180   1.881       .  S
O174       Ni175   1.924       .  S
Ni175       O179   1.881       .  S
Ni175       O177   1.960       .  S
O176       Ni181   1.969       .  S
C178        O179   1.271       .  A
C178        C648   1.504       .  S
O183       Ni189   1.929       .  S
O183        C204   1.270       .  A
O184       Ni207   1.866       .  S
O184        C193   1.266       .  A
O185       Ni189   1.895       .  S
O185       Ni207   1.870       .  S
O185       Ni201   1.872       .  S
O185        H208   0.966       .  S
C186        O203   1.273       .  A
C186        O195   1.284       .  A
C186        C671   1.479       .  S
O187       Ni206   1.970       .  S
O187        C193   1.291       .  A
O188       Ni206   1.966       .  S
O188        C190   1.282       .  A
Ni189       O192   1.900       .  S
Ni189       O194   1.915       .  S
C190        O200   1.259       .  A
C190        C731   1.491       .  S
O191       Ni207   1.933       .  S
O191        C197   1.281       .  A
O192        C197   1.280       .  A
C193        C638   1.471       .  S
O194        C196   1.269       .  A
O195       Ni206   1.954       .  S
C196        O202   1.274       .  A
C196        C681   1.490       .  S
C197        C741   1.461       .  S
H198        O199   0.966       .  S
O199       Ni207   1.904       .  S
O199       Ni201   1.872       .  S
O199       Ni206   1.896       .  S
O200       Ni201   1.892       .  S
Ni201       O205   1.854       .  S
Ni201       O203   1.900       .  S
O202       Ni207   1.951       .  S
C204        O205   1.248       .  A
C204        C661   1.454       .  S
O209       Ni215   1.982       .  S
O209        C230   1.297       .  A
O210       Ni233   1.875       .  S
O210        C219   1.260       .  A
O211       Ni215   1.897       .  S
O211       Ni233   1.854       .  S
O211       Ni227   1.933       .  S
O211        H234   0.966       .  S
C212        O229   1.295       .  A
C212        O221   1.281       .  A
C212        C618   1.493       .  S
O213       Ni232   1.930       .  S
O213        C219   1.269       .  A
O214       Ni232   1.881       .  S
O214        C216   1.262       .  A
Ni215       O220   1.908       .  S
Ni215      O1114   2.039       .  S
C216        O226   1.263       .  A
C216        C601   1.463       .  S
O217       Ni233   1.857       .  S
O217       C1119   1.240       .  A
O218      Ni1111   2.039       .  S
O218        C223   1.292       .  A
C219        C628   1.472       .  S
O220        C222   1.274       .  A
O221       Ni232   1.907       .  S
C222        O228   1.291       .  A
C222       C1504   1.509       .  S
C223       O1113   1.240       .  A
C223        C588   1.515       .  S
H224        O225   0.965       .  S
O225       Ni233   1.871       .  S
O225       Ni227   1.879       .  S
O225       Ni232   1.875       .  S
O226       Ni227   1.926       .  S
Ni227       O231   1.893       .  S
Ni227       O229   1.971       .  S
O228       Ni233   1.988       .  S
C230        O231   1.276       .  A
C230        C578   1.508       .  S
O235       Ni241   1.940       .  S
O235        C256   1.271       .  A
O236       Ni259   1.870       .  S
O236        C245   1.270       .  A
O237       Ni241   1.897       .  S
O237       Ni259   1.880       .  S
O237       Ni253   1.873       .  S
O237        H260   0.966       .  S
C238        O247   1.294       .  A
C238       O1151   1.270   1_554  A
C238        C558   1.493       .  S
O239       Ni258   1.986       .  S
O239        C245   1.297       .  A
O240       Ni258   1.976       .  S
O240        C242   1.282       .  A
Ni241       O244   1.904       .  S
Ni241       O246   1.915       .  S
C242        O252   1.258       .  A
C242       C1434   1.497       .  S
O243       Ni259   1.932       .  S
O243        C249   1.279       .  A
O244        C249   1.279       .  A
C245        C531   1.492       .  S
O246        C248   1.267       .  A
O247      Ni1154   1.979   1_554  S
C248        O254   1.270       .  A
C248        C568   1.477       .  S
C249        C551   1.460       .  S
H250        O251   0.967       .  S
O251       Ni259   1.889       .  S
O251       Ni253   1.866       .  S
O251       Ni258   1.883       .  S
O252       Ni253   1.887       .  S
Ni253       O257   1.854       .  S
Ni253       O255   1.877       .  S
O254       Ni259   1.940       .  S
O255       C1134   1.270       .  A
C256        O257   1.245       .  A
C256        C631   1.462       .  S
Ni258      O1143   1.979       .  S
O261       Ni267   1.865       .  S
O261        C282   1.260       .  A
O262       Ni285   1.863       .  S
O262        C271   1.266       .  A
O263       Ni267   1.899       .  S
O263       Ni285   1.883       .  S
O263       Ni279   1.941       .  S
O263        H286   0.961       .  S
C264        O281   1.259       .  A
C264        O273   1.293       .  A
C264        C561   1.485       .  S
O265       Ni284   1.986       .  S
O265        C271   1.293       .  A
O266       Ni284   1.944       .  S
O266        C268   1.277       .  A
Ni267       O270   1.879       .  S
Ni267       O272   1.908       .  S
C268        O278   1.278       .  A
C268        C591   1.511       .  S
O269       Ni285   1.938       .  S
O269        C275   1.276       .  A
O270        C275   1.268       .  A
C271        C641   1.482       .  S
O272        C274   1.269       .  A
O273       Ni284   1.998       .  S
C274        O280   1.274       .  A
C274        C571   1.477       .  S
C275        C598   1.467       .  S
H276        O277   0.967       .  S
O277       Ni285   1.893       .  S
O277       Ni279   1.867       .  S
O277       Ni284   1.894       .  S
O278       Ni279   1.962       .  S
Ni279       O283   1.892       .  S
Ni279       O281   1.857       .  S
O280       Ni285   1.942       .  S
C282        O283   1.244       .  A
C282        C518   1.466       .  S
O287       Ni293   1.930       .  S
O287        C308   1.277       .  A
O288       Ni311   1.868       .  S
O288        C297   1.269       .  A
O289       Ni293   1.844       .  S
O289       Ni311   1.847       .  S
O289       Ni305   1.879       .  S
O289        H312   0.959       .  S
C290        O307   1.252       .  A
C290        O299   1.296       .  A
C290        C611   1.490       .  S
O291       Ni310   2.005       .  S
O291        C297   1.301       .  A
O292       Ni310   1.956       .  S
O292        C294   1.281       .  A
Ni293       O296   1.920       .  S
Ni293       O298   1.887       .  S
C294        O304   1.279       .  A
C294        C541   1.514       .  S
O295       Ni311   1.924       .  S
O295        C301   1.283       .  A
O296        C301   1.285       .  A
C297        C651   1.504       .  S
O298        C300   1.262       .  A
O299       Ni310   2.029       .  S
C300        O306   1.280       .  A
C300        C621   1.481       .  S
C301        C548   1.477       .  S
H302        O303   0.967       .  S
O303       Ni311   1.903       .  S
O303       Ni305   1.860       .  S
O303       Ni310   1.902       .  S
O304       Ni305   1.961       .  S
Ni305       O309   1.872       .  S
Ni305       O307   1.862       .  S
O306       Ni311   1.967       .  S
C308        O309   1.257       .  A
C308        C521   1.473       .  S
O313       Ni319   1.930       .  S
O313        C334   1.282       .  A
O314       Ni337   1.884       .  S
O314        C323   1.278       .  A
O315       Ni319   1.872       .  S
O315       Ni337   1.897       .  S
O315       Ni331   1.872       .  S
O315        H338   0.960       .  S
C316        O333   1.283       .  A
C316        O325   1.278       .  A
C316        C498   1.460       .  S
O317       Ni336   1.970       .  S
O317        C323   1.298       .  A
O318       Ni336   2.012       .  S
O318        C320   1.275       .  A
Ni319       O322   1.899       .  S
Ni319       O324   1.908       .  S
C320        O330   1.234       .  A
C320        C471   1.523       .  S
O321       Ni337   1.919       .  S
O321        C327   1.262       .  A
O322        C327   1.264       .  A
C323        C528   1.501       .  S
O324        C326   1.275       .  A
O325       Ni336   1.909       .  S
C326        O332   1.302       .  A
C326        C488   1.529       .  S
C327        C478   1.464       .  S
H328        O329   0.967       .  S
O329       Ni337   1.881       .  S
O329       Ni331   1.872       .  S
O329       Ni336   1.925       .  S
O330       Ni331   1.885       .  S
Ni331       O335   1.874       .  S
Ni331       O333   1.933       .  S
O332       Ni337   2.030       .  S
C334        O335   1.260       .  A
C334        C508   1.481       .  S
O339       Ni345   1.938       .  S
O339        C360   1.275       .  A
O340       Ni363   1.879       .  S
O340        C349   1.269       .  A
O341       Ni345   1.885       .  S
O341       Ni363   1.867       .  S
O341       Ni357   1.849       .  S
O341        H364   0.966       .  S
C342        O359   1.263       .  A
C342        O351   1.291       .  A
C342        C448   1.467       .  S
O343       Ni362   1.990       .  S
O343        C349   1.295       .  A
O344       Ni362   1.970       .  S
O344        C346   1.281       .  A
Ni345       O348   1.903       .  S
Ni345       O350   1.923       .  S
C346        O356   1.261       .  A
C346        C431   1.502       .  S
O347       Ni363   1.920       .  S
O347        C353   1.281       .  A
O348        C353   1.283       .  A
C349        C581   1.501       .  S
O350        C352   1.270       .  A
O351       Ni362   1.982       .  S
C352        O358   1.281       .  A
C352        C458   1.515       .  S
C353        C438   1.466       .  S
H354        O355   0.967       .  S
O355       Ni363   1.894       .  S
O355       Ni357   1.885       .  S
O355       Ni362   1.904       .  S
O356       Ni357   1.906       .  S
Ni357       O361   1.863       .  S
Ni357       O359   1.853       .  S
O358       Ni363   1.980       .  S
C360        O361   1.245       .  A
C360        C511   1.448   1_655  S
O365       Ni371   1.947       .  S
O365        C386   1.275       .  A
O366       Ni389   1.867   1_455  S
O366        C375   1.267       .  A
O367       Ni371   1.872       .  S
O367       Ni389   1.860       .  S
O367       Ni383   1.862   1_655  S
O367        H390   0.966       .  S
C368        O385   1.269       .  A
C368        O377   1.292       .  A
C368        C501   1.462       .  S
O369       Ni388   1.986       .  S
O369        C375   1.297       .  A
O370       Ni388   1.973   1_655  S
O370        C372   1.281       .  A
Ni371       O376   1.922   1_554  S
Ni371      O1270   1.914   1_554  S
C372        O382   1.258       .  A
C372        C428   1.504       .  S
O373      Ni1285   1.925       .  S
O373        C379   1.284       .  A
O374      Ni1267   1.913       .  S
O374        C379   1.289       .  A
C375        C761   1.483       .  S
O376       C1274   1.267   1_655  A
O377       Ni388   1.973       .  S
C378       O1272   1.267   1_455  A
C378       O1280   1.285       .  A
C378        C491   1.533       .  S
C379        C441   1.482       .  S
H380        O381   0.967       .  S
O381       Ni389   1.886   1_455  S
O381       Ni383   1.868       .  S
O381       Ni388   1.890       .  S
O382       Ni383   1.899   1_655  S
Ni383       O387   1.856   1_455  S
Ni383       O385   1.865       .  S
O384       Ni389   1.999   1_456  S
O384       C1274   1.285       .  A
C386        O387   1.248       .  A
C386        C418   1.463   1_655  S
Ni389      O1269   1.925   1_554  S
O391       Ni397   1.919       .  S
O391        C412   1.271       .  A
O392       Ni415   1.853       .  S
O392        C401   1.261       .  A
O393       Ni397   1.889       .  S
O393       Ni415   1.894       .  S
O393       Ni409   1.920       .  S
O393        H416   0.965       .  S
C394        O411   1.281       .  A
C394        O403   1.297   1_655  A
C394        C451   1.487       .  S
O395       Ni414   2.009       .  S
O395        C401   1.300       .  A
O396       Ni414   1.991       .  S
O396        C398   1.285       .  A
Ni397       O402   1.905   1_554  S
Ni397      O1296   1.909   1_554  S
C398        O408   1.258       .  A
C398        C468   1.520       .  S
O399      Ni1311   1.892       .  S
O399        C405   1.245       .  A
O400      Ni1293   1.909       .  S
O400        C405   1.264       .  A
C401        C768   1.484       .  S
O402       C1300   1.279       .  A
O403       Ni414   1.972       .  S
C404       O1298   1.279       .  A
C404       O1306   1.303       .  A
C404        C461   1.511   1_455  S
C405        C481   1.456       .  S
H406        O407   0.967   1_655  S
O407       Ni415   1.837       .  S
O407       Ni409   1.854       .  S
O407       Ni414   1.880       .  S
O408       Ni409   1.909       .  S
Ni409       O413   1.867       .  S
Ni409       O411   1.888   1_455  S
O410       Ni415   2.017   1_556  S
O410       C1300   1.303       .  A
C412        O413   1.269       .  A
C412        C421   1.469       .  S
Ni415      O1295   1.892   1_554  S
C417        C418   1.409       .  A
C417        C422   1.392       .  A
C417        F424   1.342       .  S
C418        C419   1.412       .  A
C419        C420   1.401       .  A
C419        F426   1.358       .  S
C420        C421   1.408       .  A
C420        F425   1.356       .  S
C421        C422   1.391       .  A
C422        F423   1.357       .  S
C427        C428   1.417       .  A
C427        C432   1.412       .  A
C427        F434   1.358       .  S
C428        C429   1.406       .  A
C429        C430   1.414       .  A
C429        F436   1.357       .  S
C430        C431   1.416       .  A
C430        F435   1.357       .  S
C431        C432   1.405       .  A
C432        F433   1.358       .  S
C437        C438   1.408       .  A
C437        C442   1.401       .  A
C437        F444   1.356       .  S
C438        C439   1.414       .  A
C439        C440   1.396       .  A
C439        F446   1.358       .  S
C440        C441   1.399       .  A
C440        F445   1.357       .  S
C441        C442   1.407       .  A
C442        F443   1.357       .  S
C447        C448   1.398       .  A
C447        C452   1.401       .  A
C447        F454   1.358       .  S
C448        C449   1.409       .  A
C449        C450   1.395       .  A
C449        F456   1.359       .  S
C450        C451   1.406       .  A
C450        F455   1.358       .  S
C451        C452   1.418       .  A
C452        F453   1.358       .  S
C457        C458   1.407       .  A
C457        C462   1.407       .  A
C457        F464   1.357       .  S
C458        C459   1.416       .  A
C459        C460   1.422       .  A
C459        F466   1.355       .  S
C460        C461   1.412       .  A
C460        F465   1.357       .  S
C461        C462   1.412       .  A
C462        F463   1.358       .  S
C467        C468   1.422       .  A
C467        C472   1.416       .  A
C467        F474   1.353       .  S
C468        C469   1.404       .  A
C469        C470   1.417       .  A
C469        F476   1.357       .  S
C470        C471   1.428       .  A
C470        F475   1.358       .  S
C471        C472   1.404       .  A
C472        F473   1.357       .  S
C477        C478   1.401       .  A
C477        C482   1.400       .  A
C477        F484   1.357       .  S
C478        C479   1.418       .  A
C479        C480   1.388       .  A
C479        F486   1.348       .  S
C480        C481   1.387       .  A
C480        F485   1.358       .  S
C481        C482   1.406       .  A
C482        F483   1.357       .  S
C487        C488   1.412       .  A
C487        C492   1.394       .  A
C487        F494   1.360       .  S
C488        C489   1.421       .  A
C489        C490   1.437       .  A
C489        F496   1.356       .  S
C490        C491   1.421       .  A
C490        F495   1.356       .  S
C491        C492   1.411       .  A
C492        F493   1.351       .  S
C497        C498   1.407       .  A
C497        C502   1.399       .  A
C497        F504   1.358       .  S
C498        C499   1.397       .  A
C499        C500   1.394       .  A
C499        F506   1.358       .  S
C500        C501   1.409       .  A
C500        F505   1.359       .  S
C501        C502   1.400       .  A
C502        F503   1.358       .  S
C507        C508   1.410       .  A
C507        C512   1.402       .  A
C507        F514   1.357       .  S
C508        C509   1.398       .  A
C509        C510   1.396   1_455  A
C509        F516   1.356       .  S
C510        C511   1.407   1_655  A
C510        F515   1.350       .  S
C511        C512   1.408       .  A
C512        F513   1.358       .  S
C517        C518   1.419       .  A
C517        C522   1.399       .  A
C517        F524   1.353       .  S
C518        C519   1.422       .  A
C519        C520   1.396       .  A
C519        F526   1.359       .  S
C520        C521   1.396       .  A
C520        F525   1.357       .  S
C521        C522   1.398       .  A
C522        F523   1.357       .  S
C527        C528   1.419       .  A
C527        C532   1.406       .  A
C527        F534   1.358       .  S
C528        C529   1.407       .  A
C529        C530   1.401       .  A
C529        F536   1.358       .  S
C530        C531   1.414       .  A
C530        F535   1.359       .  S
C531        C532   1.403       .  A
C532        F533   1.358       .  S
C537        C538   1.414       .  A
C537        C542   1.424       .  A
C537        F544   1.357       .  S
C538       C1138   1.497       .  S
C538        C539   1.406       .  A
C539        C540   1.399       .  A
C539        F546   1.360       .  S
C540        C541   1.414       .  A
C540        F545   1.357       .  S
C541        C542   1.415       .  A
C542        F543   1.357       .  S
C547        C548   1.408       .  A
C547        C552   1.396       .  A
C547        F554   1.358       .  S
C548        C549   1.410       .  A
C549        C550   1.394       .  A
C549        F556   1.358       .  S
C550        C551   1.402       .  A
C550        F555   1.358       .  S
C551        C552   1.403       .  A
C552        F553   1.358       .  S
C557        C558   1.401       .  A
C557        C562   1.401       .  A
C557        F564   1.357       .  S
C558        C559   1.420       .  A
C559        C560   1.402       .  A
C559        F566   1.357   1_554  S
C560        C561   1.399       .  A
C560        F565   1.358       .  S
C561        C562   1.417       .  A
C562        F563   1.358       .  S
C567        C568   1.402       .  A
C567        C572   1.399       .  A
C567        F574   1.358       .  S
C568        C569   1.410       .  A
C569        C570   1.408       .  A
C569        F576   1.358       .  S
C570        C571   1.402       .  A
C570        F575   1.357       .  S
C571        C572   1.407       .  A
C572        F573   1.357       .  S
C577        C578   1.408       .  A
C577        C582   1.404       .  A
C577        F584   1.358       .  S
C578        C579   1.422       .  A
C579        C580   1.407       .  A
C579        F586   1.358       .  S
C580        C581   1.404       .  A
C580        F585   1.358       .  S
C581        C582   1.416       .  A
C582        F583   1.357       .  S
C587        C588   1.427       .  A
C587        C592   1.406       .  A
C587        F594   1.359       .  S
C588        C589   1.404       .  A
C589        C590   1.417       .  A
C589        F596   1.357       .  S
C590        C591   1.417       .  A
C590        F595   1.347       .  S
C591        C592   1.399       .  A
C592        F593   1.358       .  S
C597        C598   1.412       .  A
C597        C602   1.397       .  A
C597        F604   1.358       .  S
C598        C599   1.398       .  A
C599        C600   1.398       .  A
C599        F606   1.358       .  S
C600        C601   1.411       .  A
C600        F605   1.358       .  S
C601        C602   1.397       .  A
C602        F603   1.357       .  S
C607        C608   1.412       .  A
C607        C612   1.412       .  A
C607       F1510   1.357       .  S
C608       C1118   1.509       .  S
C608        C609   1.414       .  A
C609        C610   1.407       .  A
C609        F616   1.358       .  S
C610        C611   1.409       .  A
C610        F615   1.358       .  S
C611        C612   1.411       .  A
C612        F613   1.357       .  S
F614       C1503   1.357       .  S
C617        C618   1.412       .  A
C617        C622   1.398       .  A
C617        F624   1.359       .  S
C618        C619   1.407       .  A
C619        C620   1.413       .  A
C619        F626   1.357       .  S
C620        C621   1.411       .  A
C620        F625   1.357       .  S
C621        C622   1.404       .  A
C622        F623   1.359       .  S
C627        C628   1.399       .  A
C627        C632   1.395       .  A
C627        F634   1.358       .  S
C628        C629   1.399       .  A
C629        C630   1.395       .  A
C629        F636   1.357       .  S
C630        C631   1.409       .  A
C630        F635   1.354       .  S
C631        C632   1.419       .  A
C632        F633   1.359       .  S
C637        C638   1.399       .  A
C637        C642   1.398   1_565  A
C637        F644   1.358       .  S
C638        C639   1.410       .  A
C639        C640   1.401   1_565  A
C639        F646   1.358       .  S
C640        C641   1.403       .  A
C640        F645   1.358       .  S
C641        C642   1.414       .  A
C642        F643   1.358       .  S
C647        C648   1.422       .  A
C647        C652   1.407       .  A
C647        F654   1.358       .  S
C648        C649   1.403       .  A
C649        C650   1.405       .  A
C649        F656   1.358       .  S
C650        C651   1.422       .  A
C650        F655   1.358       .  S
C651        C652   1.403       .  A
C652        F653   1.357       .  S
C657        C658   1.403       .  A
C657        C662   1.396       .  A
C657        F664   1.358       .  S
C658        C659   1.397       .  A
C659        C660   1.395       .  A
C659        F666   1.356       .  S
C660        C661   1.412       .  A
C660        F665   1.354       .  S
C661        C662   1.413       .  A
C662        F663   1.359       .  S
C667        C668   1.406       .  A
C667        C672   1.411       .  A
C667        F674   1.357       .  S
C668        C669   1.407       .  A
C669        C670   1.392       .  A
C669        F676   1.357       .  S
C670        C671   1.402       .  A
C670        F675   1.358       .  S
C671        C672   1.410       .  A
C672        F673   1.357       .  S
C677        C678   1.408       .  A
C677        C682   1.411       .  A
C677        F684   1.357       .  S
C678        C679   1.412       .  A
C679        C680   1.405       .  A
C679        F686   1.358       .  S
C680        C681   1.404       .  A
C680        F685   1.358       .  S
C681        C682   1.409       .  A
C682        F683   1.358       .  S
C687        C688   1.424       .  A
C687        C692   1.417       .  A
C687        F694   1.356       .  S
C688       C1034   1.532       .  S
C688        C689   1.412       .  A
C689        C690   1.420       .  A
C689        F696   1.357       .  S
C690        C691   1.418       .  A
C690        F695   1.358       .  S
C691        C692   1.407       .  A
C692        F693   1.358       .  S
C697        C698   1.407       .  A
C697        C702   1.397       .  A
C697        F704   1.357       .  S
C698        C699   1.399       .  A
C699        C700   1.396       .  A
C699        F706   1.358       .  S
C700        C701   1.407       .  A
C700        F705   1.359       .  S
C701        C702   1.399       .  A
C702        F703   1.358       .  S
C707        C708   1.411       .  A
C707        C712   1.408       .  A
C707        F714   1.358       .  S
C708        C709   1.413       .  A
C709        C710   1.406       .  A
C709        F716   1.357       .  S
C710        C711   1.407       .  A
C710        F715   1.358       .  S
C711        C712   1.409       .  A
C712        F713   1.358       .  S
C717        C718   1.414       .  A
C717        C722   1.413       .  A
C717        F724   1.357       .  S
C718        C719   1.407       .  A
C719        C720   1.404       .  A
C719        F726   1.358       .  S
C720        C721   1.408       .  A
C720        F725   1.358       .  S
C721        C722   1.407       .  A
C722        F723   1.358       .  S
C727        C728   1.410       .  A
C727        C732   1.416       .  A
C727        F734   1.357       .  S
C728        C729   1.411       .  A
C729        C730   1.405       .  A
C729        F736   1.349       .  S
C730        C731   1.404       .  A
C730        F735   1.359       .  S
C731        C732   1.413       .  A
C732        F733   1.357       .  S
C737        C738   1.403       .  A
C737        C742   1.398       .  A
C737        F744   1.358       .  S
C738        C739   1.410       .  A
C739        C740   1.396       .  A
C739        F746   1.358       .  S
C740        C741   1.398       .  A
C740        F745   1.358       .  S
C741        C742   1.408       .  A
C742        F743   1.358       .  S
C747        C748   1.391       .  A
C747        C752   1.381       .  A
C747        F754   1.359       .  S
C748        C749   1.401       .  A
C749        C750   1.388       .  A
C749        F756   1.357       .  S
C750        C751   1.402       .  A
C750       F1651   1.358       .  S
C751        C752   1.404       .  A
C752        F753   1.353       .  S
F755       C1646   1.358       .  S
C757        C758   1.412       .  A
C757       C1658   1.396   1_565  A
C757        F764   1.354       .  S
C758        C759   1.401   1_665  A
C759       C1656   1.405       .  A
C759        F766   1.357       .  S
C760        C761   1.416   1_556  A
C760       C1655   1.405       .  A
C760        F765   1.358       .  S
C761        C762   1.400   1_455  A
C762       C1653   1.396   1_545  A
C762        F763   1.358       .  S
C767        C768   1.406       .  A
C767       C1668   1.409       .  A
C767        F774   1.357       .  S
C768        C769   1.411   1_455  A
C769       C1666   1.402   1_654  A
C769        F776   1.358       .  S
C770        C771   1.402       .  A
C770       C1665   1.402   1_455  A
C770        F775   1.358   1_455  S
C771        C772   1.411       .  A
C772       C1663   1.409       .  A
C772        F773   1.358       .  S
C777        C778   1.408       .  A
C777        C782   1.393       .  A
C777        F784   1.347       .  S
C778        C779   1.415       .  A
C779        C780   1.400       .  A
C779        F786   1.358       .  S
C780        C781   1.407       .  A
C780        F785   1.358       .  S
C781        C782   1.393       .  A
C782        F783   1.357       .  S
C787        C788   1.423       .  A
C787        C792   1.396       .  A
C787        F794   1.359       .  S
C788        C789   1.405       .  A
C789        C790   1.404       .  A
C789        F796   1.357       .  S
C790        C791   1.416       .  A
C790        F795   1.358       .  S
C791        C792   1.399       .  A
C792        F793   1.358       .  S
C797        C798   1.393       .  A
C797        C802   1.396       .  A
C797        F804   1.357       .  S
C798        C799   1.410       .  A
C799        C800   1.398       .  A
C799        F806   1.357       .  S
C800        C801   1.398       .  A
C800        F805   1.357       .  S
C801        C802   1.418       .  A
C802        F803   1.359       .  S
C807        C808   1.402   1_455  A
C807        C812   1.391   1_455  A
C807        F814   1.353       .  S
C808        C809   1.425       .  A
C809        C810   1.432       .  A
C809        F816   1.357       .  S
C810        C811   1.416       .  A
C810        F815   1.357       .  S
C811        C812   1.408       .  A
C812        F813   1.350       .  S
C817        C818   1.421       .  A
C817        C822   1.416       .  A
C817        F824   1.358       .  S
C818        C819   1.405       .  A
C819        C820   1.413       .  A
C819        F826   1.357       .  S
C820        C821   1.419       .  A
C820        F825   1.358       .  S
C821        C822   1.406       .  A
C822        F823   1.357       .  S
C827        C828   1.407       .  A
C827        C832   1.394       .  A
C827        F834   1.358       .  S
C828        C829   1.402       .  A
C829        C830   1.400       .  A
C829        F836   1.358       .  S
C830        C831   1.410       .  A
C830        F835   1.357   1_554  S
C831        C832   1.396       .  A
C832        F833   1.357       .  S
C837        C838   1.412       .  A
C837        C842   1.397       .  A
C837        F844   1.358       .  S
C838        C839   1.398       .  A
C839        C840   1.402       .  A
C839        F846   1.358       .  S
C840        C841   1.420       .  A
C840        F845   1.358       .  S
C841        C842   1.404       .  A
C842        F843   1.358       .  S
C847        C848   1.406       .  A
C847        C852   1.399       .  A
C847        F854   1.358       .  S
C848        C849   1.398       .  A
C849        C850   1.395       .  A
C849        F856   1.357       .  S
C850        C851   1.416       .  A
C850        F855   1.357       .  S
C851        C852   1.411       .  A
C852        F853   1.358       .  S
C857        C858   1.411       .  A
C857        C862   1.414       .  A
C857        F864   1.357       .  S
C858        C859   1.413       .  A
C859        C860   1.419       .  A
C859        F866   1.357       .  S
C860        C861   1.412       .  A
C860        F865   1.357   1_554  S
C861        C862   1.410       .  A
C862        F863   1.357   1_455  S
C867        C868   1.410       .  A
C867        C872   1.394       .  A
C867        F874   1.358       .  S
C868        C869   1.405       .  A
C869        C870   1.402       .  A
C869        F876   1.357       .  S
C870        C871   1.405       .  A
C870        F875   1.356   1_554  S
C871        C872   1.401       .  A
C872        F873   1.359       .  S
C877        C878   1.424       .  A
C877        C882   1.416       .  A
C877        F884   1.358       .  S
C878        C879   1.405       .  A
C879        C880   1.412       .  A
C879        F886   1.357       .  S
C880        C881   1.421       .  A
C880        F885   1.357       .  S
C881        C882   1.404       .  A
C882        F883   1.357       .  S
C887        C888   1.410       .  A
C887        C892   1.400       .  A
C887        F894   1.357       .  S
C888        C889   1.396   1_455  A
C889        C890   1.394       .  A
C889        F896   1.356       .  S
C890        C891   1.410       .  A
C890        F895   1.354       .  S
C891        C892   1.404   1_655  A
C892        F893   1.358       .  S
O897       Ni903   1.937       .  S
O897        C918   1.285       .  A
O898       Ni921   1.866       .  S
O898        C907   1.266       .  A
O899       Ni903   1.863       .  S
O899       Ni921   1.893       .  S
O899       Ni915   1.872       .  S
O899        H922   0.966       .  S
C900        O917   1.287       .  A
C900        O909   1.281       .  A
C900       C1744   1.470       .  S
O901       Ni920   1.973       .  S
O901        C907   1.295       .  A
O902       Ni920   1.999       .  S
O902        C904   1.273       .  A
Ni903       O906   1.917       .  S
Ni903       O908   1.921       .  S
C904        O914   1.239       .  A
C904       C1774   1.516       .  S
O905       Ni921   1.893       .  S
O905        C911   1.260       .  A
O906        C911   1.274       .  A
C907       C1737   1.491       .  S
O908        C910   1.274       .  A
O909       Ni920   1.912       .  S
C910        O916   1.292       .  A
C910       C1754   1.512       .  S
C911       C1764   1.450       .  S
H912        O913   0.967       .  S
O913       Ni921   1.875       .  S
O913       Ni915   1.873       .  S
O913       Ni920   1.924       .  S
O914       Ni915   1.890       .  S
Ni915       O919   1.873       .  S
Ni915       O917   1.945       .  S
O916       Ni921   1.997       .  S
C918        O919   1.258       .  A
C918       C1784   1.470       .  S
O923       Ni929   1.939       .  S
O923        C944   1.273       .  A
O924       Ni947   1.870       .  S
O924        C933   1.270       .  A
O925       Ni929   1.883       .  S
O925       Ni947   1.877       .  S
O925       Ni941   1.872       .  S
O925        H948   0.966       .  S
C926        O943   1.274       .  A
C926        O935   1.289       .  A
C926       C1694   1.466       .  S
O927       Ni946   1.975       .  S
O927        C933   1.295       .  A
O928       Ni946   1.984       .  S
O928        C930   1.282       .  A
Ni929       O932   1.914       .  S
Ni929       O934   1.924       .  S
C930        O940   1.251       .  A
C930       C1714   1.506       .  S
O931       Ni947   1.913       .  S
O931        C937   1.273       .  A
O932        C937   1.283       .  A
C933       C1687   1.487       .  S
O934        C936   1.272       .  A
O935       Ni946   1.961       .  S
C936        O942   1.284       .  A
C936       C1707   1.515       .  S
C937       C1724   1.457       .  S
H938        O939   0.967       .  S
O939       Ni947   1.883       .  S
O939       Ni941   1.868       .  S
O939       Ni946   1.893       .  S
O940       Ni941   1.879       .  S
Ni941       O945   1.859       .  S
Ni941       O943   1.879       .  S
O942       Ni947   1.980       .  S
C944        O945   1.241       .  A
C944       C1787   1.447       .  S
O949       Ni955   1.945       .  S
O949        C970   1.276       .  A
O950       Ni973   1.861       .  S
O950        C959   1.265       .  A
O951       Ni955   1.876       .  S
O951       Ni973   1.865       .  S
O951       Ni967   1.865       .  S
O951        H974   0.963       .  S
C952        O969   1.269       .  A
C952        O961   1.298       .  A
C952       C1697   1.476       .  S
O953       Ni972   2.001       .  S
O953        C959   1.299       .  A
O954       Ni972   1.987       .  S
O954        C956   1.284       .  A
C956        O966   1.258       .  A
C956       C1777   1.513       .  S
O957        C963   1.277       .  A
O958        C963   1.285       .  A
C959       C1667   1.481       .  S
O960        C962   1.271       .  A
O961       Ni972   1.990   1_655  S
C962       C1704   1.517   1_455  S
C963       C1767   1.473       .  S
H964        O965   0.967   1_655  S
O965       Ni973   1.879       .  S
O965       Ni967   1.872       .  S
O965       Ni972   1.881       .  S
O966       Ni967   1.905       .  S
Ni967       O971   1.858       .  S
Ni967       O969   1.853   1_455  S
O968       Ni973   1.971   1_554  S
C970        O971   1.248       .  A
C970       C1674   1.468   1_455  S
O975       Ni981   1.910   1_556  S
O975        C996   1.271       .  A
O976       Ni999   1.858   1_455  S
O976        C985   1.261   1_455  A
O977       Ni981   1.902   1_556  S
O977       Ni999   1.898       .  S
O977       Ni993   1.909       .  S
O977       H1000   0.965       .  S
C978        O995   1.276       .  A
C978        O987   1.291       .  A
C978       C1747   1.490       .  S
O979       Ni998   1.993   1_655  S
O979        C985   1.294       .  A
O980       Ni998   1.975   1_655  S
O980        C982   1.282       .  A
Ni981       O986   1.916       .  S
C982        O992   1.260       .  A
C982       C1717   1.510       .  S
O983        C989   1.246       .  A
O984        C989   1.258       .  A
C985       C1654   1.481       .  S
O987       Ni998   1.965       .  S
C988       C1757   1.509       .  S
C989       C1727   1.463       .  S
H990        O991   0.967       .  S
O991       Ni999   1.858   1_455  S
O991       Ni993   1.872   1_455  S
O991       Ni998   1.902       .  S
O992       Ni993   1.906       .  S
Ni993       O997   1.873       .  S
Ni993       O995   1.886   1_655  S
O994       Ni999   2.018   1_554  S
C996        O997   1.269       .  A
C996       C1677   1.468       .  S
O1001     Ni1007   1.907       .  S
O1001      C1022   1.255       .  A
O1002     Ni1025   1.849       .  S
O1002      C1011   1.265       .  A
O1003     Ni1007   1.836       .  S
O1003     Ni1025   1.826       .  S
O1003     Ni1019   1.891       .  S
O1003      H1026   0.960       .  S
C1004      O1021   1.257       .  A
C1004      O1013   1.295       .  A
C1004      C1607   1.482       .  S
O1005     Ni1024   2.000       .  S
O1005      C1011   1.299       .  A
O1006      C1008   1.278       .  A
Ni1007     O1010   1.895       .  S
Ni1007     O1012   1.878       .  S
C1008      C1624   1.510       .  S
O1009     Ni1025   1.957       .  S
O1009      C1015   1.294       .  A
O1010      C1015   1.286       .  A
C1011      C1684   1.497       .  S
O1012      C1014   1.248       .  A
C1014      O1020   1.278       .  A
C1014      C1614   1.487       .  S
C1015      C1634   1.471       .  S
H1016      O1017   0.967       .  S
O1017     Ni1025   1.912       .  S
O1017     Ni1019   1.872       .  S
O1017     Ni1024   1.893       .  S
O1018     Ni1019   1.971       .  S
Ni1019     O1023   1.895       .  S
O1020     Ni1025   1.990       .  S
C1022      O1023   1.263       .  A
C1022      C1647   1.417       .  S
O1027     Ni1033   1.808       .  S
O1027      C1048   1.258       .  A
O1028     Ni1051   1.843       .  S
O1028      C1037   1.261       .  A
O1029     Ni1033   2.070       .  S
O1029     Ni1051   1.898       .  S
O1029     Ni1045   2.047       .  S
O1029      H1052   0.992       .  S
C1030      O1039   1.289       .  A
C1030      C1564   1.476       .  S
O1031     Ni1050   1.995       .  S
O1031      C1037   1.295       .  A
O1032     Ni1050   1.970       .  S
O1032      C1034   1.285       .  A
Ni1033     O1036   1.880       .  S
Ni1033     O1038   1.880       .  S
C1034      O1044   1.274       .  A
O1035     Ni1051   1.931       .  S
O1035      C1041   1.243       .  A
O1036      C1041   1.241       .  A
C1037      C1734   1.475       .  S
O1038      C1040   1.281       .  A
C1040      O1046   1.311       .  A
C1040      C1574   1.483       .  S
C1041      C1594   1.462       .  S
H1042      O1043   0.967       .  S
O1043     Ni1051   1.888       .  S
O1043     Ni1045   1.836       .  S
O1043     Ni1050   1.908       .  S
O1044     Ni1045   1.949       .  S
Ni1045     O1049   1.866       .  S
Ni1045     O1047   1.872       .  S
O1046     Ni1051   2.033       .  S
C1048      O1049   1.233       .  A
C1048      C1644   1.425       .  S
O1053     Ni1059   1.992       .  S
O1053      C1074   1.297       .  A
O1054     Ni1077   1.858       .  S
O1054      C1063   1.256       .  A
O1055     Ni1059   1.903       .  S
O1055     Ni1077   1.864       .  S
O1055     Ni1071   1.933       .  S
O1055      H1078   0.966       .  S
C1056      O1073   1.288       .  A
C1056      O1065   1.282       .  A
C1056      C1617   1.494       .  S
O1057     Ni1076   1.944       .  S
O1057      C1063   1.275       .  A
O1058     Ni1076   1.891       .  S
O1058      C1060   1.265       .  A
Ni1059     O1062   2.037       .  S
Ni1059     O1064   1.921       .  S
C1060      O1070   1.266       .  A
C1060      C1597   1.460       .  S
O1061     Ni1077   1.879       .  S
O1061      C1067   1.249       .  A
O1062      C1067   1.295       .  A
C1063      C1554   1.474       .  S
O1064      C1066   1.276       .  A
O1065     Ni1076   1.927       .  S
C1066      O1072   1.284       .  A
C1066      C1604   1.503       .  S
C1067      C1587   1.513       .  S
H1068      O1069   0.963       .  S
O1069     Ni1077   1.891       .  S
O1069     Ni1071   1.878       .  S
O1069     Ni1076   1.881       .  S
O1070     Ni1071   1.924       .  S
Ni1071     O1075   1.881       .  S
Ni1071     O1073   1.961       .  S
O1072     Ni1077   1.969       .  S
C1074      O1075   1.271       .  A
C1074      C1544   1.504       .  S
O1079     Ni1085   1.929       .  S
O1079      C1100   1.270       .  A
O1080     Ni1103   1.866       .  S
O1080      C1089   1.266       .  A
O1081     Ni1085   1.895       .  S
O1081     Ni1103   1.870       .  S
O1081     Ni1097   1.872       .  S
O1081      H1104   0.966       .  S
C1082      O1099   1.273       .  A
C1082      O1091   1.284       .  A
C1082      C1567   1.479       .  S
O1083     Ni1102   1.970       .  S
O1083      C1089   1.291       .  A
O1084     Ni1102   1.966       .  S
O1084      C1086   1.282       .  A
Ni1085     O1088   1.900       .  S
Ni1085     O1090   1.915       .  S
C1086      O1096   1.259       .  A
C1086      C1627   1.491       .  S
O1087     Ni1103   1.933       .  S
O1087      C1093   1.281       .  A
O1088      C1093   1.280       .  A
C1089      C1534   1.471       .  S
O1090      C1092   1.269       .  A
O1091     Ni1102   1.954       .  S
C1092      O1098   1.274       .  A
C1092      C1577   1.490       .  S
C1093      C1637   1.461       .  S
H1094      O1095   0.966       .  S
O1095     Ni1103   1.904       .  S
O1095     Ni1097   1.872       .  S
O1095     Ni1102   1.896       .  S
O1096     Ni1097   1.892       .  S
Ni1097     O1101   1.854       .  S
Ni1097     O1099   1.900       .  S
O1098     Ni1103   1.951       .  S
C1100      O1101   1.248       .  A
C1100      C1557   1.454       .  S
O1105     Ni1111   1.982   1_556  S
O1105      C1126   1.297       .  A
O1106     Ni1129   1.875       .  S
O1106      C1115   1.260       .  A
O1107     Ni1111   1.897   1_556  S
O1107     Ni1129   1.854       .  S
O1107     Ni1123   1.933       .  S
O1107      H1130   0.966       .  S
C1108      O1125   1.295       .  A
C1108      O1117   1.281       .  A
C1108      C1514   1.493       .  S
O1109     Ni1128   1.930       .  S
O1109      C1115   1.269       .  A
O1110     Ni1128   1.881       .  S
O1110      C1112   1.262       .  A
Ni1111     O1116   1.908       .  S
C1112      O1122   1.263       .  A
C1112      C1497   1.463       .  S
O1113     Ni1129   1.857   1_554  S
O1114      C1119   1.292       .  A
C1115      C1524   1.472       .  S
O1116      C1118   1.274       .  A
O1117     Ni1128   1.907       .  S
C1118      O1124   1.291       .  A
C1119      C1484   1.515       .  S
H1120      O1121   0.965       .  S
O1121     Ni1129   1.871       .  S
O1121     Ni1123   1.879       .  S
O1121     Ni1128   1.875       .  S
O1122     Ni1123   1.926       .  S
Ni1123     O1127   1.893       .  S
Ni1123     O1125   1.971       .  S
O1124     Ni1129   1.988   1_554  S
C1126      O1127   1.276       .  A
C1126      C1474   1.508       .  S
O1131     Ni1137   1.940       .  S
O1131      C1152   1.271       .  A
O1132     Ni1155   1.871       .  S
O1132      C1141   1.270       .  A
O1133     Ni1137   1.897       .  S
O1133     Ni1155   1.880       .  S
O1133     Ni1149   1.873       .  S
O1133      H1156   0.966       .  S
C1134      O1143   1.294       .  A
C1134      C1454   1.493       .  S
O1135     Ni1154   1.986       .  S
O1135      C1141   1.297       .  A
O1136     Ni1154   1.976   1_554  S
O1136      C1138   1.282       .  A
Ni1137     O1140   1.904       .  S
Ni1137     O1142   1.915       .  S
C1138      O1148   1.258   1_554  A
O1139     Ni1155   1.932       .  S
O1139      C1145   1.279       .  A
O1140      C1145   1.279       .  A
C1141      C1427   1.492       .  S
O1142      C1144   1.267       .  A
C1144      O1150   1.270       .  A
C1144      C1464   1.477       .  S
C1145      C1447   1.460       .  S
H1146      O1147   0.967       .  S
O1147     Ni1155   1.889       .  S
O1147     Ni1149   1.866       .  S
O1147     Ni1154   1.883       .  S
O1148     Ni1149   1.887       .  S
Ni1149     O1153   1.854       .  S
Ni1149     O1151   1.877       .  S
O1150     Ni1155   1.940       .  S
C1152      O1153   1.245       .  A
C1152      C1527   1.462       .  S
O1157     Ni1163   1.865       .  S
O1157      C1178   1.260       .  A
O1158     Ni1181   1.863       .  S
O1158      C1167   1.266       .  A
O1159     Ni1163   1.899       .  S
O1159     Ni1181   1.883       .  S
O1159     Ni1175   1.941       .  S
O1159      H1182   0.961       .  S
C1160      O1177   1.259       .  A
C1160      O1169   1.293       .  A
C1160      C1457   1.485       .  S
O1161     Ni1180   1.986       .  S
O1161      C1167   1.293       .  A
O1162     Ni1180   1.944       .  S
O1162      C1164   1.277       .  A
Ni1163     O1166   1.879       .  S
Ni1163     O1168   1.908       .  S
C1164      O1174   1.278       .  A
C1164      C1487   1.511       .  S
O1165     Ni1181   1.938       .  S
O1165      C1171   1.276       .  A
O1166      C1171   1.268       .  A
C1167      C1537   1.482       .  S
O1168      C1170   1.269       .  A
O1169     Ni1180   1.998       .  S
C1170      O1176   1.274       .  A
C1170      C1467   1.477       .  S
C1171      C1494   1.467       .  S
H1172      O1173   0.967       .  S
O1173     Ni1181   1.893       .  S
O1173     Ni1175   1.867       .  S
O1173     Ni1180   1.894       .  S
O1174     Ni1175   1.962       .  S
Ni1175     O1179   1.892       .  S
Ni1175     O1177   1.857       .  S
O1176     Ni1181   1.942       .  S
C1178      O1179   1.244       .  A
C1178      C1414   1.466       .  S
O1183     Ni1189   1.930       .  S
O1183      C1204   1.277       .  A
O1184     Ni1207   1.868       .  S
O1184      C1193   1.269       .  A
O1185     Ni1189   1.844       .  S
O1185     Ni1207   1.847       .  S
O1185     Ni1201   1.879       .  S
O1185      H1208   0.959       .  S
C1186      O1203   1.252       .  A
C1186      O1195   1.296       .  A
C1186      C1507   1.490       .  S
O1187     Ni1206   2.005       .  S
O1187      C1193   1.301       .  A
O1188     Ni1206   1.956       .  S
O1188      C1190   1.281       .  A
Ni1189     O1192   1.920       .  S
Ni1189     O1194   1.887       .  S
C1190      O1200   1.279       .  A
C1190      C1437   1.514       .  S
O1191     Ni1207   1.924       .  S
O1191      C1197   1.283       .  A
O1192      C1197   1.285       .  A
C1193      C1547   1.504       .  S
O1194      C1196   1.262       .  A
O1195     Ni1206   2.029       .  S
C1196      O1202   1.280       .  A
C1196      C1517   1.481       .  S
C1197      C1444   1.477       .  S
H1198      O1199   0.967       .  S
O1199     Ni1207   1.903       .  S
O1199     Ni1201   1.860       .  S
O1199     Ni1206   1.902       .  S
O1200     Ni1201   1.961       .  S
Ni1201     O1205   1.872       .  S
Ni1201     O1203   1.862       .  S
O1202     Ni1207   1.966       .  S
C1204      O1205   1.257       .  A
C1204      C1417   1.473       .  S
O1209     Ni1215   1.930       .  S
O1209      C1230   1.282       .  A
O1210     Ni1233   1.884       .  S
O1210      C1219   1.278       .  A
O1211     Ni1215   1.872       .  S
O1211     Ni1233   1.897       .  S
O1211     Ni1227   1.872       .  S
O1211      H1234   0.960       .  S
C1212      O1229   1.283       .  A
C1212      O1221   1.278       .  A
C1212      C1394   1.460       .  S
O1213     Ni1232   1.970       .  S
O1213      C1219   1.298       .  A
O1214     Ni1232   2.012       .  S
O1214      C1216   1.275       .  A
Ni1215     O1218   1.899       .  S
Ni1215     O1220   1.908       .  S
C1216      O1226   1.234       .  A
C1216      C1367   1.522       .  S
O1217     Ni1233   1.920       .  S
O1217      C1223   1.262       .  A
O1218      C1223   1.264       .  A
C1219      C1424   1.501       .  S
O1220      C1222   1.275       .  A
O1221     Ni1232   1.909       .  S
C1222      O1228   1.302       .  A
C1222      C1384   1.529       .  S
C1223      C1374   1.464       .  S
H1224      O1225   0.967       .  S
O1225     Ni1233   1.881       .  S
O1225     Ni1227   1.872       .  S
O1225     Ni1232   1.925       .  S
O1226     Ni1227   1.885       .  S
Ni1227     O1231   1.874       .  S
Ni1227     O1229   1.933       .  S
O1228     Ni1233   2.030       .  S
C1230      O1231   1.260       .  A
C1230      C1404   1.481       .  S
O1235     Ni1241   1.938       .  S
O1235      C1256   1.275       .  A
O1236     Ni1259   1.879       .  S
O1236      C1245   1.269       .  A
O1237     Ni1241   1.885       .  S
O1237     Ni1259   1.867       .  S
O1237     Ni1253   1.849       .  S
O1237      H1260   0.965       .  S
C1238      O1255   1.263       .  A
C1238      O1247   1.291       .  A
C1238      C1344   1.467       .  S
O1239     Ni1258   1.990       .  S
O1239      C1245   1.295       .  A
O1240     Ni1258   1.970       .  S
O1240      C1242   1.281       .  A
Ni1241     O1244   1.904       .  S
Ni1241     O1246   1.923       .  S
C1242      O1252   1.261       .  A
C1242      C1327   1.502       .  S
O1243     Ni1259   1.920       .  S
O1243      C1249   1.281       .  A
O1244      C1249   1.283       .  A
C1245      C1477   1.501       .  S
O1246      C1248   1.270       .  A
O1247     Ni1258   1.982       .  S
C1248      O1254   1.281       .  A
C1248      C1354   1.515       .  S
C1249      C1334   1.466       .  S
H1250      O1251   0.967       .  S
O1251     Ni1259   1.893       .  S
O1251     Ni1253   1.885       .  S
O1251     Ni1258   1.904       .  S
O1252     Ni1253   1.906       .  S
Ni1253     O1257   1.863       .  S
Ni1253     O1255   1.853       .  S
O1254     Ni1259   1.979       .  S
C1256      O1257   1.245       .  A
C1256      C1407   1.448   1_655  S
O1261     Ni1267   1.947       .  S
O1261      C1282   1.275       .  A
O1262     Ni1285   1.867   1_455  S
O1262      C1271   1.267       .  A
O1263     Ni1267   1.872       .  S
O1263     Ni1285   1.861       .  S
O1263     Ni1279   1.862   1_655  S
O1263      H1286   0.966       .  S
C1264      O1281   1.270       .  A
C1264      O1273   1.292       .  A
C1264      C1397   1.462       .  S
O1265     Ni1284   1.986       .  S
O1265      C1271   1.297       .  A
O1266     Ni1284   1.973   1_655  S
O1266      C1268   1.281       .  A
Ni1267     O1272   1.922       .  S
C1268      O1278   1.258       .  A
C1268      C1324   1.503       .  S
O1269      C1275   1.284       .  A
O1270      C1275   1.289       .  A
C1271      C1657   1.483       .  S
O1273     Ni1284   1.973       .  S
C1274      C1387   1.533       .  S
C1275      C1337   1.482       .  S
H1276      O1277   0.967       .  S
O1277     Ni1285   1.886   1_455  S
O1277     Ni1279   1.868       .  S
O1277     Ni1284   1.890       .  S
O1278     Ni1279   1.899   1_655  S
Ni1279     O1283   1.856   1_455  S
Ni1279     O1281   1.865       .  S
O1280     Ni1285   1.998   1_455  S
C1282      O1283   1.248       .  A
C1282      C1314   1.463   1_655  S
O1287     Ni1293   1.919       .  S
O1287      C1308   1.271       .  A
O1288     Ni1311   1.853       .  S
O1288      C1297   1.261       .  A
O1289     Ni1293   1.889       .  S
O1289     Ni1311   1.893       .  S
O1289     Ni1305   1.920       .  S
O1289      H1312   0.965       .  S
C1290      O1307   1.280       .  A
C1290      O1299   1.297   1_655  A
C1290      C1347   1.487       .  S
O1291     Ni1310   2.009       .  S
O1291      C1297   1.299       .  A
O1292     Ni1310   1.991       .  S
O1292      C1294   1.285       .  A
Ni1293     O1298   1.905       .  S
C1294      O1304   1.258       .  A
C1294      C1364   1.520       .  S
O1295      C1301   1.245       .  A
O1296      C1301   1.264       .  A
C1297      C1664   1.484       .  S
O1299     Ni1310   1.972       .  S
C1300      C1357   1.511   1_455  S
C1301      C1377   1.456       .  S
H1302      O1303   0.967   1_655  S
O1303     Ni1311   1.837       .  S
O1303     Ni1305   1.854       .  S
O1303     Ni1310   1.880       .  S
O1304     Ni1305   1.909       .  S
Ni1305     O1309   1.867       .  S
Ni1305     O1307   1.888   1_455  S
O1306     Ni1311   2.017       .  S
C1308      O1309   1.269       .  A
C1308      C1317   1.469       .  S
C1313      C1314   1.409       .  A
C1313      C1318   1.392       .  A
C1313      F1320   1.342       .  S
C1314      C1315   1.412       .  A
C1315      C1316   1.401       .  A
C1315      F1322   1.358       .  S
C1316      C1317   1.409       .  A
C1316      F1321   1.356       .  S
C1317      C1318   1.391       .  A
C1318      F1319   1.357       .  S
C1323      C1324   1.417       .  A
C1323      C1328   1.412       .  A
C1323      F1330   1.358       .  S
C1324      C1325   1.406       .  A
C1325      C1326   1.414       .  A
C1325      F1332   1.357       .  S
C1326      C1327   1.416       .  A
C1326      F1331   1.357       .  S
C1327      C1328   1.405       .  A
C1328      F1329   1.358       .  S
C1333      C1334   1.408       .  A
C1333      C1338   1.401       .  A
C1333      F1340   1.356       .  S
C1334      C1335   1.414       .  A
C1335      C1336   1.396       .  A
C1335      F1342   1.358       .  S
C1336      C1337   1.399       .  A
C1336      F1341   1.357       .  S
C1337      C1338   1.407       .  A
C1338      F1339   1.357       .  S
C1343      C1344   1.398       .  A
C1343      C1348   1.401       .  A
C1343      F1350   1.358       .  S
C1344      C1345   1.409       .  A
C1345      C1346   1.395       .  A
C1345      F1352   1.359       .  S
C1346      C1347   1.406       .  A
C1346      F1351   1.358       .  S
C1347      C1348   1.418       .  A
C1348      F1349   1.358       .  S
C1353      C1354   1.407       .  A
C1353      C1358   1.407       .  A
C1353      F1360   1.357       .  S
C1354      C1355   1.416       .  A
C1355      C1356   1.422       .  A
C1355      F1362   1.355       .  S
C1356      C1357   1.412       .  A
C1356      F1361   1.357       .  S
C1357      C1358   1.412       .  A
C1358      F1359   1.358   1_556  S
C1363      C1364   1.422       .  A
C1363      C1368   1.416       .  A
C1363      F1370   1.353       .  S
C1364      C1365   1.404       .  A
C1365      C1366   1.417       .  A
C1365      F1372   1.357       .  S
C1366      C1367   1.427       .  A
C1366      F1371   1.358       .  S
C1367      C1368   1.404       .  A
C1368      F1369   1.357       .  S
C1373      C1374   1.400       .  A
C1373      C1378   1.400       .  A
C1373      F1380   1.357       .  S
C1374      C1375   1.418       .  A
C1375      C1376   1.388       .  A
C1375      F1382   1.348       .  S
C1376      C1377   1.387       .  A
C1376      F1381   1.358       .  S
C1377      C1378   1.406       .  A
C1378      F1379   1.357   1_556  S
C1383      C1384   1.412       .  A
C1383      C1388   1.394       .  A
C1383      F1390   1.360       .  S
C1384      C1385   1.421       .  A
C1385      C1386   1.437       .  A
C1385      F1392   1.356       .  S
C1386      C1387   1.421       .  A
C1386      F1391   1.356       .  S
C1387      C1388   1.411       .  A
C1388      F1389   1.351       .  S
C1393      C1394   1.407       .  A
C1393      C1398   1.399       .  A
C1393      F1400   1.358       .  S
C1394      C1395   1.397       .  A
C1395      C1396   1.394       .  A
C1395      F1402   1.358       .  S
C1396      C1397   1.409       .  A
C1396      F1401   1.359       .  S
C1397      C1398   1.400       .  A
C1398      F1399   1.358       .  S
C1403      C1404   1.410       .  A
C1403      C1408   1.402       .  A
C1403      F1410   1.357       .  S
C1404      C1405   1.398       .  A
C1405      C1406   1.396   1_455  A
C1405      F1412   1.356       .  S
C1406      C1407   1.407   1_655  A
C1406      F1411   1.350       .  S
C1407      C1408   1.408       .  A
C1408      F1409   1.358       .  S
C1413      C1414   1.419       .  A
C1413      C1418   1.399       .  A
C1413      F1420   1.353       .  S
C1414      C1415   1.422       .  A
C1415      C1416   1.396       .  A
C1415      F1422   1.359       .  S
C1416      C1417   1.396       .  A
C1416      F1421   1.357       .  S
C1417      C1418   1.398       .  A
C1418      F1419   1.357       .  S
C1423      C1424   1.419       .  A
C1423      C1428   1.407       .  A
C1423      F1430   1.358       .  S
C1424      C1425   1.407       .  A
C1425      C1426   1.401       .  A
C1425      F1432   1.358       .  S
C1426      C1427   1.414       .  A
C1426      F1431   1.359       .  S
C1427      C1428   1.403       .  A
C1428      F1429   1.358       .  S
C1433      C1434   1.414       .  A
C1433      C1438   1.424       .  A
C1433      F1440   1.357       .  S
C1434      C1435   1.406       .  A
C1435      C1436   1.399       .  A
C1435      F1442   1.360       .  S
C1436      C1437   1.414       .  A
C1436      F1441   1.357       .  S
C1437      C1438   1.415       .  A
C1438      F1439   1.357       .  S
C1443      C1444   1.408       .  A
C1443      C1448   1.396       .  A
C1443      F1450   1.358       .  S
C1444      C1445   1.410       .  A
C1445      C1446   1.395       .  A
C1445      F1452   1.358       .  S
C1446      C1447   1.402       .  A
C1446      F1451   1.358       .  S
C1447      C1448   1.403       .  A
C1448      F1449   1.358       .  S
C1453      C1454   1.401       .  A
C1453      C1458   1.401       .  A
C1453      F1460   1.357       .  S
C1454      C1455   1.420       .  A
C1455      C1456   1.402       .  A
C1455      F1462   1.357       .  S
C1456      C1457   1.399       .  A
C1456      F1461   1.358       .  S
C1457      C1458   1.417       .  A
C1458      F1459   1.358       .  S
C1463      C1464   1.402       .  A
C1463      C1468   1.399       .  A
C1463      F1470   1.358       .  S
C1464      C1465   1.410       .  A
C1465      C1466   1.408       .  A
C1465      F1472   1.358       .  S
C1466      C1467   1.402       .  A
C1466      F1471   1.357       .  S
C1467      C1468   1.407       .  A
C1468      F1469   1.357       .  S
C1473      C1474   1.408       .  A
C1473      C1478   1.404       .  A
C1473      F1480   1.358       .  S
C1474      C1475   1.422       .  A
C1475      C1476   1.407       .  A
C1475      F1482   1.358       .  S
C1476      C1477   1.404       .  A
C1476      F1481   1.358       .  S
C1477      C1478   1.416       .  A
C1478      F1479   1.357       .  S
C1483      C1484   1.427       .  A
C1483      C1488   1.406       .  A
C1483      F1490   1.359       .  S
C1484      C1485   1.404       .  A
C1485      C1486   1.417       .  A
C1485      F1492   1.357       .  S
C1486      C1487   1.417       .  A
C1486      F1491   1.347       .  S
C1487      C1488   1.399       .  A
C1488      F1489   1.358       .  S
C1493      C1494   1.412       .  A
C1493      C1498   1.397       .  A
C1493      F1500   1.358       .  S
C1494      C1495   1.398       .  A
C1495      C1496   1.398       .  A
C1495      F1502   1.358       .  S
C1496      C1497   1.411       .  A
C1496      F1501   1.358       .  S
C1497      C1498   1.397       .  A
C1498      F1499   1.357       .  S
C1503      C1504   1.412       .  A
C1503      C1508   1.412       .  A
C1504      C1505   1.414       .  A
C1505      C1506   1.407       .  A
C1505      F1512   1.358       .  S
C1506      C1507   1.409       .  A
C1506      F1511   1.358       .  S
C1507      C1508   1.411       .  A
C1508      F1509   1.357       .  S
C1513      C1514   1.412       .  A
C1513      C1518   1.398       .  A
C1513      F1520   1.359       .  S
C1514      C1515   1.407       .  A
C1515      C1516   1.413       .  A
C1515      F1522   1.357       .  S
C1516      C1517   1.411       .  A
C1516      F1521   1.357       .  S
C1517      C1518   1.404       .  A
C1518      F1519   1.359       .  S
C1523      C1524   1.399       .  A
C1523      C1528   1.395       .  A
C1523      F1530   1.358   1_556  S
C1524      C1525   1.399       .  A
C1525      C1526   1.395       .  A
C1525      F1532   1.357       .  S
C1526      C1527   1.409       .  A
C1526      F1531   1.354       .  S
C1527      C1528   1.419       .  A
C1528      F1529   1.359   1_556  S
C1533      C1534   1.399       .  A
C1533      C1538   1.398   1_565  A
C1533      F1540   1.358       .  S
C1534      C1535   1.410       .  A
C1535      C1536   1.401   1_565  A
C1535      F1542   1.358       .  S
C1536      C1537   1.403       .  A
C1536      F1541   1.358       .  S
C1537      C1538   1.414       .  A
C1538      F1539   1.358       .  S
C1543      C1544   1.422       .  A
C1543      C1548   1.407       .  A
C1543      F1550   1.358       .  S
C1544      C1545   1.403       .  A
C1545      C1546   1.405       .  A
C1545      F1552   1.358       .  S
C1546      C1547   1.422       .  A
C1546      F1551   1.358       .  S
C1547      C1548   1.403       .  A
C1548      F1549   1.357       .  S
C1553      C1554   1.403       .  A
C1553      C1558   1.396       .  A
C1553      F1560   1.358       .  S
C1554      C1555   1.397       .  A
C1555      C1556   1.395       .  A
C1555      F1562   1.356       .  S
C1556      C1557   1.412       .  A
C1556      F1561   1.354       .  S
C1557      C1558   1.413       .  A
C1558      F1559   1.359       .  S
C1563      C1564   1.406       .  A
C1563      C1568   1.411       .  A
C1563      F1570   1.357       .  S
C1564      C1565   1.407       .  A
C1565      C1566   1.392       .  A
C1565      F1572   1.357       .  S
C1566      C1567   1.402       .  A
C1566      F1571   1.358       .  S
C1567      C1568   1.410       .  A
C1568      F1569   1.357       .  S
C1573      C1574   1.408       .  A
C1573      C1578   1.411       .  A
C1573      F1580   1.357       .  S
C1574      C1575   1.412       .  A
C1575      C1576   1.405       .  A
C1575      F1582   1.358       .  S
C1576      C1577   1.404       .  A
C1576      F1581   1.358       .  S
C1577      C1578   1.409       .  A
C1578      F1579   1.358       .  S
C1583      C1584   1.424       .  A
C1583      C1588   1.417       .  A
C1583      F1590   1.356   1_556  S
C1584      C1585   1.412       .  A
C1585      C1586   1.420       .  A
C1585      F1592   1.357       .  S
C1586      C1587   1.418       .  A
C1586      F1591   1.358       .  S
C1587      C1588   1.407       .  A
C1588      F1589   1.358       .  S
C1593      C1594   1.407       .  A
C1593      C1598   1.397       .  A
C1593      F1600   1.357       .  S
C1594      C1595   1.399       .  A
C1595      C1596   1.396       .  A
C1595      F1602   1.358       .  S
C1596      C1597   1.407       .  A
C1596      F1601   1.359       .  S
C1597      C1598   1.399       .  A
C1598      F1599   1.358       .  S
C1603      C1604   1.411       .  A
C1603      C1608   1.408       .  A
C1603      F1610   1.358       .  S
C1604      C1605   1.413       .  A
C1605      C1606   1.406       .  A
C1605      F1612   1.357       .  S
C1606      C1607   1.407       .  A
C1606      F1611   1.358       .  S
C1607      C1608   1.409       .  A
C1608      F1609   1.358       .  S
C1613      C1614   1.414       .  A
C1613      C1618   1.413       .  A
C1613      F1620   1.357       .  S
C1614      C1615   1.407       .  A
C1615      C1616   1.404       .  A
C1615      F1622   1.358       .  S
C1616      C1617   1.408       .  A
C1616      F1621   1.358       .  S
C1617      C1618   1.407       .  A
C1618      F1619   1.358       .  S
C1623      C1624   1.410       .  A
C1623      C1628   1.416       .  A
C1623      F1630   1.357       .  S
C1624      C1625   1.411       .  A
C1625      C1626   1.405       .  A
C1625      F1632   1.349       .  S
C1626      C1627   1.404       .  A
C1626      F1631   1.359       .  S
C1627      C1628   1.413       .  A
C1628      F1629   1.357       .  S
C1633      C1634   1.403       .  A
C1633      C1638   1.398       .  A
C1633      F1640   1.358       .  S
C1634      C1635   1.410       .  A
C1635      C1636   1.396       .  A
C1635      F1642   1.358       .  S
C1636      C1637   1.398       .  A
C1636      F1641   1.358       .  S
C1637      C1638   1.408       .  A
C1638      F1639   1.358       .  S
C1643      C1644   1.391       .  A
C1643      C1648   1.381       .  A
C1643      F1650   1.359       .  S
C1644      C1645   1.401       .  A
C1645      C1646   1.388       .  A
C1645      F1652   1.357       .  S
C1646      C1647   1.402       .  A
C1647      C1648   1.404       .  A
C1648      F1649   1.353       .  S
C1653      C1654   1.412   1_554  A
C1653      F1660   1.354       .  S
C1654      C1655   1.401   1_665  A
C1655      F1662   1.357       .  S
C1656      C1657   1.416       .  A
C1656      F1661   1.358       .  S
C1657      C1658   1.400   1_455  A
C1658      F1659   1.358       .  S
C1663      C1664   1.406       .  A
C1663      F1670   1.357       .  S
C1664      C1665   1.411   1_455  A
C1665      F1672   1.358       .  S
C1666      C1667   1.402       .  A
C1666      F1671   1.358   1_455  S
C1667      C1668   1.411   1_556  A
C1668      F1669   1.358       .  S
C1673      C1674   1.407       .  A
C1673      C1678   1.394       .  A
C1673      F1680   1.346       .  S
C1674      C1675   1.418       .  A
C1675      C1676   1.401       .  A
C1675      F1682   1.359       .  S
C1676      C1677   1.407       .  A
C1676      F1681   1.358       .  S
C1677      C1678   1.393       .  A
C1678      F1679   1.357       .  S
C1683      C1684   1.423       .  A
C1683      C1688   1.396       .  A
C1683      F1690   1.359       .  S
C1684      C1685   1.405       .  A
C1685      C1686   1.403       .  A
C1685      F1692   1.357       .  S
C1686      C1687   1.416       .  A
C1686      F1691   1.358       .  S
C1687      C1688   1.399       .  A
C1688      F1689   1.358       .  S
C1693      C1694   1.393       .  A
C1693      C1698   1.396       .  A
C1693      F1700   1.357       .  S
C1694      C1695   1.410       .  A
C1695      C1696   1.398       .  A
C1695      F1702   1.357       .  S
C1696      C1697   1.398       .  A
C1696      F1701   1.357       .  S
C1697      C1698   1.418       .  A
C1698      F1699   1.359       .  S
C1703      C1704   1.403   1_455  A
C1703      C1708   1.391   1_455  A
C1703      F1710   1.354       .  S
C1704      C1705   1.422       .  A
C1705      C1706   1.431       .  A
C1705      F1712   1.357       .  S
C1706      C1707   1.416       .  A
C1706      F1711   1.357       .  S
C1707      C1708   1.408       .  A
C1708      F1709   1.350       .  S
C1713      C1714   1.421       .  A
C1713      C1718   1.416       .  A
C1713      F1720   1.358       .  S
C1714      C1715   1.405       .  A
C1715      C1716   1.413       .  A
C1715      F1722   1.357       .  S
C1716      C1717   1.419       .  A
C1716      F1721   1.358       .  S
C1717      C1718   1.406       .  A
C1718      F1719   1.357       .  S
C1723      C1724   1.407       .  A
C1723      C1728   1.394       .  A
C1723      F1730   1.358       .  S
C1724      C1725   1.402       .  A
C1725      C1726   1.400       .  A
C1725      F1732   1.358       .  S
C1726      C1727   1.410       .  A
C1726      F1731   1.357       .  S
C1727      C1728   1.396       .  A
C1728      F1729   1.357       .  S
C1733      C1734   1.412       .  A
C1733      C1738   1.397       .  A
C1733      F1740   1.358       .  S
C1734      C1735   1.398       .  A
C1735      C1736   1.402       .  A
C1735      F1742   1.358       .  S
C1736      C1737   1.420       .  A
C1736      F1741   1.358       .  S
C1737      C1738   1.404       .  A
C1738      F1739   1.358       .  S
C1743      C1744   1.406       .  A
C1743      C1748   1.399       .  A
C1743      F1750   1.358       .  S
C1744      C1745   1.398       .  A
C1745      C1746   1.395       .  A
C1745      F1752   1.357       .  S
C1746      C1747   1.416       .  A
C1746      F1751   1.357       .  S
C1747      C1748   1.411       .  A
C1748      F1749   1.358       .  S
C1753      C1754   1.411       .  A
C1753      C1758   1.414       .  A
C1753      F1760   1.357       .  S
C1754      C1755   1.413       .  A
C1755      C1756   1.419       .  A
C1755      F1762   1.357       .  S
C1756      C1757   1.412       .  A
C1756      F1761   1.357       .  S
C1757      C1758   1.410       .  A
C1758      F1759   1.357   1_455  S
C1763      C1764   1.410       .  A
C1763      C1768   1.394       .  A
C1763      F1770   1.357       .  S
C1764      C1765   1.403       .  A
C1765      C1766   1.401       .  A
C1765      F1772   1.357       .  S
C1766      C1767   1.407       .  A
C1766      F1771   1.356       .  S
C1767      C1768   1.398       .  A
C1768      F1769   1.358       .  S
C1773      C1774   1.424       .  A
C1773      C1778   1.416       .  A
C1773      F1780   1.358       .  S
C1774      C1775   1.405       .  A
C1775      C1776   1.412       .  A
C1775      F1782   1.357       .  S
C1776      C1777   1.421       .  A
C1776      F1781   1.357       .  S
C1777      C1778   1.404       .  A
C1778      F1779   1.357       .  S
C1783      C1784   1.410       .  A
C1783      C1788   1.400       .  A
C1783      F1790   1.357       .  S
C1784      C1785   1.396   1_455  A
C1785      C1786   1.394       .  A
C1785      F1792   1.356       .  S
C1786      C1787   1.410       .  A
C1786      F1791   1.354       .  S
C1787      C1788   1.404   1_655  A
C1788      F1789   1.358       .  S
