geometry optimzed in LAMMPS
_audit_creation_date              2020-12-01 
_audit_creation_method            'lammps2cif' 
_symmetry_space_group_name_H-M    'P1' 
_symmetry_Int_Tables_number       1 
_symmetry_cell_setting            triclinic 
loop_ 
_symmetry_equiv_pos_as_xyz 
  x,y,z 
_cell_length_a                    49.08588106 
_cell_length_b                    48.990311781138374 
_cell_length_c                    36.76378257484344 
_cell_angle_alpha                 89.9134681461834 
_cell_angle_beta                  90.34965767051905 
_cell_angle_gamma                 119.82044125351129 
loop_ 
_atom_site_label 
_atom_site_type_symbol 
_atom_site_fract_x 
_atom_site_fract_y 
_atom_site_fract_z 
_atom_site_charge 
O1          O  0.33294218  0.23956951  0.60733436    -0.83600
C2          C  0.36254695  0.36266534  0.57685152     0.95800
O3          O  0.34125691  0.34574985  0.59905466    -0.72700
O4          O  0.31126058  0.29674792  0.55762406    -0.76300
Al5        Al  0.32478583  0.30159825  0.60601602     1.49000
C6          C  0.30664152  0.27374149  0.53823351     0.91000
O7          O  0.38270832  0.29560106  0.53097104    -0.82500
O8          O  0.40851097  0.30832279  0.63533749    -0.76100
Al9        Al  0.35815024  0.26946709  0.57051813     1.90100
O10         O  0.41943076  0.33251818  0.56469656    -0.75100
O11         O  0.38280352  0.34484520  0.65183708    -0.75000
O12         O  0.38788628  0.36172836  0.57690257    -0.80600
O13         O  0.33436948  0.30621694  0.65555576    -0.78800
O14         O  0.35992185  0.30162873  0.59465493    -1.15000
O15         O  0.30029424  0.25740937  0.61506958    -0.74200
C16         C  0.30674447  0.23558332  0.61824516     0.96500
C17         C  0.40992748  0.31931314  0.53401283     0.92900
Al18       Al  0.39690105  0.33451567  0.60660675     1.55600
O19         O  0.32214621  0.25994858  0.54307372    -0.78800
C20         C  0.35777301  0.32923142  0.66998867     0.97100
C21         C  0.40733596  0.28359709  0.62259321     0.92000
O22         O  0.39352952  0.27170165  0.59301876    -0.84100
O23         O  0.25122257  0.32606713  0.88564836    -0.83600
C24         C  0.37400805  0.35587659  0.91254587     0.95800
O25         O  0.35769810  0.33559788  0.88871640    -0.72700
O26         O  0.31005907  0.30451998  0.93070640    -0.76300
Al27       Al  0.31327118  0.31858366  0.88300886     1.49000
C28         C  0.28879728  0.30100627  0.95214609     0.91000
O29         O  0.30876612  0.37643161  0.96057038    -0.82500
O30         O  0.31931710  0.40249675  0.85680034    -0.76100
Al31       Al  0.28205668  0.35163071  0.92147955     1.90100
O32         O  0.34496495  0.41347586  0.92711622    -0.75100
O33         O  0.35564166  0.37712759  0.83843483    -0.75000
O34         O  0.37360462  0.38154511  0.91331045    -0.80600
O35         O  0.31620362  0.32899368  0.83377089    -0.78800
O36         O  0.31351929  0.35367270  0.89613095    -1.15000
O37         O  0.26866579  0.29343406  0.87541407    -0.74200
C38         C  0.24667760  0.29975969  0.87417763     0.96500
C39         C  0.33223721  0.40373159  0.95781946     0.92900
Al40       Al  0.34612156  0.39091482  0.88447794     1.55600
O41         O  0.27449725  0.31617892  0.94847654    -0.78800
C42         C  0.33858732  0.35282769  0.81936616     0.97100
C43         C  0.29436592  0.40050068  0.86975754     0.92000
O44         O  0.28312448  0.38666694  0.89939570    -0.84100
O45         O  0.25700861  0.07666035  0.60924237    -0.83600
C46         C  0.13345490  0.48641809  0.58390440     0.95800
O47         O  0.14948050  0.48186349  0.60770937    -0.72700
O48         O  0.19732213  0.99636759  0.56618567    -0.76300
Al49       Al  0.19409914  0.00827621  0.61356262     1.49000
C50         C  0.21823306  0.01368031  0.54409894     0.91000
O51         O  0.19988811  0.07086277  0.53440660    -0.82500
O52         O  0.19038948  0.08771366  0.63794906    -0.76100
Al53       Al  0.22639441  0.07199587  0.57359687     1.90100
O54         O  0.16461374  0.07333222  0.56793464    -0.75100
O55         O  0.15259403  0.02649904  0.65694356    -0.75000
O56         O  0.13484772  0.01294120  0.58258943    -0.80600
O57         O  0.19124630  0.01657762  0.66265476    -0.78800
O58         O  0.19475034  0.04346979  0.59943128    -1.15000
O59         O  0.23859543  0.02677050  0.62147110    -0.74200
C60         C  0.26094194  0.05484158  0.62189636     0.96500
C61         C  0.17711829  0.07589269  0.53720010     0.92900
Al62       Al  0.16286277  0.04949544  0.61079314     1.55600
O63         O  0.23265303  0.04314653  0.54703819    -0.78800
C64         C  0.16916667  0.01894606  0.67652522     0.97100
C65         C  0.21554899  0.11005940  0.62465058     0.92000
O66         O  0.22669586  0.10668406  0.59535832    -0.84100
O67         O  0.17637334  0.41118836  0.88518595    -0.83600
C68         C  0.14559504  0.00359132  0.91854227     0.95800
O69         O  0.16693087  0.00819848  0.89635166    -0.72700
O70         O  0.19736749  0.48896726  0.93705078    -0.76300
Al71       Al  0.18370942  0.48090696  0.88861286     1.49000
C72         C  0.20284774  0.47065325  0.95556133     0.91000
O73         O  0.12738043  0.41613163  0.96327680    -0.82500
O74         O  0.09920474  0.40324758  0.86005654    -0.76100
Al75       Al  0.15146680  0.41509272  0.92297999     1.90100
O76         O  0.08996258  0.41676717  0.93114115    -0.75100
O77         O  0.12495911  0.46563355  0.84352324    -0.75000
O78         O  0.12054289  0.47720233  0.91868418    -0.80600
O79         O  0.17387210  0.47666214  0.83924301    -0.78800
O80         O  0.14886277  0.44546880  0.89976002    -1.15000
O81         O  0.20869182  0.46177948  0.87854879    -0.74200
C82         C  0.20248059  0.43366679  0.87451938     0.96500
C83         C  0.10021654  0.41300947  0.96131950     0.92900
Al84       Al  0.11150618  0.44115728  0.88882775     1.55600
O85         O  0.18786386  0.44147559  0.95008580    -0.78800
C86         C  0.15012475  0.47604201  0.82532269     0.97100
C87         C  0.10063623  0.37966943  0.87236678     0.92000
O88         O  0.11595471  0.38186852  0.90081564    -0.84100
O89         O  0.41991021  0.16688660  0.60819130    -0.83600
C90         C  0.01054618  0.13341562  0.57913247     0.95800
O91         O  0.01562832  0.15537292  0.60087445    -0.72700
O92         O  0.49847420  0.18743300  0.55927211    -0.76300
Al93       Al  0.48913045  0.17323233  0.60763739     1.49000
C94         C  0.48044153  0.19263048  0.53972192     0.91000
O95         O  0.42585161  0.11726406  0.53143748    -0.82500
O96         O  0.41070294  0.09024878  0.63526115    -0.76100
Al97       Al  0.42414905  0.14159347  0.57111183     1.90100
O98         O  0.42378885  0.07903097  0.56441819    -0.75100
O99         O  0.47256228  0.11416859  0.65265625    -0.75000
O100        O  0.48392136  0.10868934  0.57856797    -0.80600
O101        O  0.48380072  0.16322861  0.65691082    -0.78800
O102        O  0.45368337  0.13861617  0.59560233    -1.15000
O103        O  0.47037463  0.19876367  0.61679657    -0.74200
C104        C  0.44232539  0.19289821  0.61948959     0.96500
C105        C  0.42172670  0.08969419  0.53370836     0.92900
Al106      Al  0.44821554  0.10085434  0.60720946     1.55600
O107        O  0.45126830  0.17772161  0.54451311    -0.78800
C108        C  0.48326654  0.13951659  0.67078642     0.97100
C109        C  0.38769059  0.09217276  0.62205449     0.92000
O110        O  0.39023948  0.10627312  0.59253747    -0.84100
O111        O  0.08377420  0.24905074  0.88581219    -0.83600
C112        C  0.49598405  0.12456909  0.91016655     0.95800
O113        O  0.49094982  0.14019883  0.88632110    -0.72700
O114        O  0.00358582  0.18796955  0.92797696    -0.76300
Al115      Al  0.01630167  0.18498318  0.88082857     1.49000
C116        C  0.02029421  0.20946553  0.95004992     0.91000
O117        O  0.07808439  0.19269155  0.96143893    -0.82500
O118        O  0.09749673  0.18355152  0.85882093    -0.76100
Al119      Al  0.07940432  0.21889786  0.92194592     1.90100
O120        O  0.08243301  0.15792425  0.92864523    -0.75100
O121        O  0.03678922  0.14458070  0.83825824    -0.75000
O122        O  0.02274661  0.12672982  0.91195332    -0.80600
O123        O  0.02523443  0.18218106  0.83207297    -0.78800
O124        O  0.05182128  0.18672043  0.89573005    -1.15000
O125        O  0.03381398  0.22954631  0.87304724    -0.74200
C126        C  0.06164040  0.25236958  0.87290682     0.96500
C127        C  0.08375776  0.17025556  0.95929522     0.92900
Al128      Al  0.05914251  0.15541857  0.88490119     1.55600
O129        O  0.04971882  0.22463448  0.94740509    -0.78800
C130        C  0.02844424  0.16041066  0.81850718     0.97100
C131        C  0.11928883  0.20895100  0.87266752     0.92000
O132        O  0.11498150  0.22003740  0.90155470    -0.84100
O133        O  0.11049338  0.21797067  0.39766328    -0.83600
C134        C  0.13804360  0.12511053  0.41550253     0.95800
O135        O  0.11330182  0.12721818  0.41636409    -0.72700
O136        O  0.08393666  0.15884913  0.42734882    -0.76300
Al137      Al  0.10453641  0.15412284  0.38564684     1.49000
C138        C  0.09522564  0.17156930  0.45774406     0.91000
O139        O  0.18268961  0.22848018  0.44434116    -0.82500
O140        O  0.20168165  0.22846732  0.37080668    -0.76100
Al141      Al  0.14623057  0.21948421  0.41875732     1.90100
O142        O  0.19261549  0.19107570  0.42953091    -0.75100
O143        O  0.16430415  0.17806208  0.33293970    -0.75000
O144        O  0.15863567  0.14040832  0.39175357    -0.80600
O145        O  0.11576003  0.14058382  0.34141804    -0.78800
O146        O  0.14255482  0.18633720  0.39520061    -1.15000
O147        O  0.09394123  0.18083312  0.35582655    -0.74200
C148        C  0.09676038  0.20654963  0.36787481     0.96500
C149        C  0.19813144  0.21458134  0.44851919     0.92900
Al150      Al  0.17645040  0.18455830  0.38209644     1.55600
O151        O  0.12289992  0.19460969  0.45957945    -0.78800
C152        C  0.13941098  0.15504355  0.32112921     0.97100
C153        C  0.19618751  0.25103908  0.36885898     0.92000
O154        O  0.17063165  0.24798610  0.38078017    -0.84100
O155        O  0.24084068  0.12253994  0.10859185    -0.83600
C156        C  0.14059579  0.14139711  0.07950465     0.95800
O157        O  0.13673374  0.11575009  0.09349467    -0.72700
O158        O  0.16329198  0.08687831  0.06440475    -0.76300
Al159      Al  0.16751279  0.10393903  0.11144542     1.49000
C160        C  0.18245743  0.09090966  0.03980755     0.91000
O161        O  0.22938952  0.17179498  0.04059758    -0.82500
O162        O  0.23546067  0.19057183  0.14625464    -0.76100
Al163      Al  0.23302696  0.14660983  0.07652407     1.90100
O164        O  0.22485520  0.20333376  0.07866909    -0.75100
O165        O  0.17358643  0.16061094  0.15574753    -0.75000
O166        O  0.16522756  0.16724568  0.08537125    -0.80600
O167        O  0.16447181  0.11283104  0.16176358    -0.78800
O168        O  0.19995282  0.14207081  0.10134528    -1.15000
O169        O  0.19429837  0.08685528  0.12843797    -0.74200
C170        C  0.22393473  0.09812335  0.12647253     0.96500
C171        C  0.23229904  0.19804476  0.04811123     0.92900
Al172      Al  0.19951270  0.17694858  0.11542565     1.55600
O173        O  0.21069617  0.11226729  0.04311876    -0.78800
C174        C  0.16364891  0.13623074  0.17436623     0.97100
C175        C  0.26163700  0.19623917  0.13331033     0.92000
O176        O  0.26302069  0.18240276  0.10476618    -0.84100
O177        O  0.26751090  0.38579217  0.38473345    -0.83600
C178        C  0.36747132  0.00471967  0.41362776     0.95800
O179        O  0.37138181  0.48297261  0.39982067    -0.72700
O180        O  0.34506705  0.42788508  0.42976052    -0.76300
Al181      Al  0.34074912  0.44051840  0.38236657     1.49000
C182        C  0.32574877  0.41244060  0.45414457     0.91000
O183        O  0.27834339  0.44566625  0.45323050    -0.82500
O184        O  0.27180018  0.45909218  0.34790744    -0.76100
Al185      Al  0.27499525  0.41725529  0.41704957     1.90100
O186        O  0.28298402  0.48216543  0.41571728    -0.75100
O187        O  0.33354572  0.49048250  0.33770999    -0.75000
O188        O  0.34269065  0.00580837  0.40799376    -0.80600
O189        O  0.34381021  0.45251021  0.33190148    -0.78800
O190        O  0.30801250  0.44599944  0.39235063    -1.15000
O191        O  0.31430084  0.39670510  0.36564387    -0.74200
C192        C  0.28466989  0.37837892  0.36721603     0.96500
C193        C  0.27523498  0.46896943  0.44606868     0.92900
Al194      Al  0.30809234  0.48120786  0.37841356     1.55600
O195        O  0.29741106  0.40515910  0.45035276    -0.78800
C196        C  0.34403347  0.47647034  0.31918003     0.97100
C197        C  0.24574475  0.43817601  0.36063489     0.92000
O198        O  0.24471591  0.42288122  0.38900286    -0.84100
O199        O  0.39905584  0.11267064  0.09785759    -0.83600
C200        C  0.37178492  0.49178552  0.07862033     0.95800
O201        O  0.39625774  0.01862554  0.07713366    -0.72700
O202        O  0.42559817  0.07930133  0.06536576    -0.76300
Al203      Al  0.40523949  0.05418103  0.10761985     1.49000
C204        C  0.41421014  0.08195315  0.03547755     0.91000
O205        O  0.32694529  0.05135946  0.04960593    -0.82500
O206        O  0.30737748  0.03139640  0.12171154    -0.76100
Al207      Al  0.36344973  0.07877497  0.07581635     1.90100
O208        O  0.31813941  0.00409567  0.06317679    -0.75100
O209        O  0.34500220  0.01880719  0.16023753    -0.75000
O210        O  0.35122599  0.48677808  0.10225712    -0.80600
O211        O  0.39361744  0.02945992  0.15224855    -0.78800
O212        O  0.36729220  0.04892561  0.09841192    -1.15000
O213        O  0.41668264  0.09121658  0.13746621    -0.74200
C214        C  0.41389399  0.11440691  0.12667148     0.96500
C215        C  0.31213753  0.02206594  0.04466145     0.92900
Al216      Al  0.33331177  0.01319638  0.11102209     1.55600
O217        O  0.38688129  0.07834717  0.03457501    -0.78800
C218        C  0.36982248  0.02056309  0.17238933     0.97100
C219        C  0.31294627  0.05938766  0.12486377     0.92000
O220        O  0.33888333  0.08203547  0.11420256    -0.84100
O221        O  0.39229250  0.26183926  0.11198332    -0.83600
C222        C  0.01284637  0.35755232  0.07871222     0.95800
O223        O  0.49173206  0.36284597  0.09136674    -0.72700
O224        O  0.43617560  0.33725958  0.06225602    -0.76300
Al225      Al  0.44939962  0.33429195  0.10994710     1.49000
C226        C  0.41927944  0.31723160  0.03890526     0.91000
O227        O  0.44879990  0.26633687  0.04197809    -0.82500
O228        O  0.46474046  0.26364153  0.14721172    -0.76100
Al229      Al  0.42217432  0.26630706  0.07866185     1.90100
O230        O  0.48625701  0.27210828  0.07893479    -0.75100
O231        O  0.49806804  0.32545197  0.15584729    -0.75000
O232        O  0.01261460  0.33222457  0.08534804    -0.80600
O233        O  0.46237033  0.33900627  0.16016157    -0.78800
O234        O  0.45270233  0.29990109  0.10159763    -1.15000
O235        O  0.40615995  0.31034261  0.12813106    -0.74200
C236        C  0.38686805  0.28086593  0.12880924     0.96500
C237        C  0.47235354  0.26352944  0.04890643     0.92900
Al238      Al  0.48723758  0.29876028  0.11568891     1.55600
O239        O  0.41044325  0.28859888  0.04431637    -0.78800
C240        C  0.48547164  0.33794071  0.17347275     0.97100
C241        C  0.44337455  0.23741060  0.13521316     0.92000
O242        O  0.42711898  0.23603136  0.10757892    -0.84100
O243        O  0.12011036  0.38805791  0.39504383    -0.83600
C244        C  0.49929764  0.35942283  0.41528804     0.95800
O245        O  0.02600377  0.38407585  0.41735660    -0.72700
O246        O  0.08679570  0.41420173  0.42891461    -0.76300
Al247      Al  0.06149937  0.39411909  0.38666630     1.49000
C248        C  0.08985599  0.40285696  0.45850729     0.91000
O249        O  0.05969367  0.31528832  0.44228866    -0.82500
O250        O  0.03987368  0.29718042  0.36755589    -0.76100
Al251      Al  0.08669626  0.35214389  0.41674480     1.90100
O252        O  0.01216142  0.30473335  0.42725327    -0.75100
O253        O  0.02657988  0.33541161  0.33157776    -0.75000
O254        O  0.49439116  0.33909785  0.39114382    -0.80600
O255        O  0.03665326  0.38356447  0.34221885    -0.78800
O256        O  0.05666048  0.35598596  0.39434238    -1.15000
O257        O  0.09844368  0.40647209  0.35666131    -0.74200
C258        C  0.12167410  0.40350157  0.36687973     0.96500
C259        C  0.03043409  0.29938633  0.44619622     0.92900
Al260      Al  0.02123163  0.32206248  0.38031121     1.55600
O261        O  0.08637420  0.37548088  0.45883851    -0.78800
C262        C  0.02820030  0.36054217  0.32079203     0.97100
C263        C  0.06762454  0.30212190  0.36568692     0.92000
O264        O  0.09022821  0.32757173  0.37795891    -0.84100
C265        C  0.48085590  0.35507167  0.23700864    -0.15100
C266        C  0.49833730  0.35021837  0.21020934     0.07000
C267        C  0.02786534  0.35399803  0.21971558    -0.15100
C268        C  0.03845010  0.35967029  0.25558400    -0.15100
C269        C  0.02013191  0.36234357  0.28270743     0.07000
C270        C  0.49174988  0.36111150  0.27320579    -0.15100
H271        H  0.45808896  0.35233961  0.23047221     0.11000
H272        H  0.04220904  0.35092731  0.19967646     0.11000
H273        H  0.06031140  0.36042053  0.26251080     0.11000
H274        H  0.47714031  0.36273380  0.29407184     0.11000
C275        C  0.40378395  0.15204506  0.15925153    -0.15100
C276        C  0.42618050  0.14432609  0.14677710     0.07000
C277        C  0.45675541  0.16882212  0.13988555    -0.15100
C278        C  0.46370730  0.20031046  0.14153585    -0.15100
C279        C  0.43998568  0.20760467  0.14923005     0.07000
C280        C  0.41041912  0.18334396  0.15982673    -0.15100
H281        H  0.37980438  0.13357911  0.16375416     0.11000
H282        H  0.47409859  0.16359194  0.12895215     0.11000
H283        H  0.48646720  0.21860049  0.13230678     0.11000
H284        H  0.39160192  0.18828594  0.16510103     0.11000
C285        C  0.16061979  0.39436748  0.33637860    -0.15100
C286        C  0.15155416  0.41631059  0.34688006     0.07000
C287        C  0.17500354  0.44779909  0.35194230    -0.15100
C288        C  0.20690980  0.45620902  0.35093301    -0.15100
C289        C  0.21558440  0.43310141  0.34556335     0.07000
C290        C  0.19226580  0.40251551  0.33638336    -0.15100
H291        H  0.14302829  0.36978401  0.33316168     0.11000
H292        H  0.16875698  0.46494973  0.36113496     0.11000
H293        H  0.22448445  0.47981867  0.35891537     0.11000
H294        H  0.19826801  0.38418879  0.33285921     0.11000
C295        C  0.36126968  0.47178118  0.25567722    -0.15100
C296        C  0.35581473  0.48904252  0.28232620     0.07000
C297        C  0.35945135  0.51857024  0.27289193    -0.15100
C298        C  0.36619189  0.52962859  0.23737538    -0.15100
C299        C  0.37013763  0.01184566  0.21048804     0.07000
C300        C  0.36839999  0.98317702  0.21982579    -0.15100
H301        H  0.35858771  0.94899789  0.26209686     0.11000
H302        H  0.35579110  0.53274669  0.29271284     0.11000
H303        H  0.36701384  0.55155151  0.23050177     0.11000
H304        H  0.37072113  0.96884596  0.19903049     0.11000
C305        C  0.30165865  0.25279159  0.13673556    -0.15100
C306        C  0.29141572  0.22173877  0.14808317     0.07000
C307        C  0.31322966  0.21445440  0.16320957    -0.15100
C308        C  0.34520065  0.23685618  0.16325486    -0.15100
C309        C  0.35598318  0.26650680  0.14689073     0.07000
C310        C  0.33384577  0.27512366  0.13608781    -0.15100
H311        H  0.28518825  0.25864025  0.12417464     0.11000
H312        H  0.30595077  0.19056183  0.17144711     0.11000
H313        H  0.36182581  0.22950067  0.17142866     0.11000
H314        H  0.34143416  0.29744060  0.12267044     0.11000
C315        C  0.25590257  0.04341832  0.12986962    -0.15100
C316        C  0.28766247  0.06533153  0.13750754     0.07000
C317        C  0.29506708  0.09469390  0.15188095    -0.15100
C318        C  0.27188331  0.10320931  0.15481104    -0.15100
C319        C  0.24103352  0.08304662  0.14214528     0.07000
C320        C  0.23275584  0.05230506  0.13189207    -0.15100
H321        H  0.24949457  0.02053726  0.11869927     0.11000
H322        H  0.31918178  0.11193113  0.15832111     0.11000
H323        H  0.27899476  0.12717320  0.16263475     0.11000
H324        H  0.20945864  0.03650968  0.12130871     0.11000
C325        C  0.21394463  0.30408462  0.34151351    -0.15100
C326        C  0.22135458  0.28218878  0.35621075     0.07000
C327        C  0.25306117  0.29198388  0.36422429    -0.15100
C328        C  0.27614646  0.32393526  0.36222306    -0.15100
C329        C  0.26785589  0.34633837  0.35153576     0.07000
C330        C  0.23709833  0.33569705  0.33848620    -0.15100
H331        H  0.18987241  0.29723326  0.33480218     0.11000
H332        H  0.25943025  0.27553637  0.37570385     0.11000
H333        H  0.29935925  0.33142203  0.37314680     0.11000
H334        H  0.23000305  0.35252326  0.33033333     0.11000
C335        C  0.14235386  0.11966479  0.27437506    -0.15100
C336        C  0.13865046  0.14552928  0.28324569     0.07000
C337        C  0.13991329  0.16585327  0.25585596    -0.15100
C338        C  0.14617659  0.16136879  0.22020790    -0.15100
C339        C  0.15188419  0.13671328  0.21122023     0.07000
C340        C  0.14890875  0.11521072  0.23840449    -0.15100
H341        H  0.14201082  0.10410695  0.29554756     0.11000
H342        H  0.13747173  0.18609751  0.26239118     0.11000
H343        H  0.14792477  0.17819281  0.19989153     0.11000
H344        H  0.15326030  0.09610286  0.23228536     0.11000
C345        C  0.10264728  0.28184468  0.34293460    -0.15100
C346        C  0.07274656  0.27613974  0.35292813     0.07000
C347        C  0.04847243  0.24459314  0.35649316    -0.15100
C348        C  0.05496081  0.21972007  0.35498573    -0.15100
C349        C  0.08564760  0.22582854  0.34890097     0.07000
C350        C  0.10881683  0.25686653  0.34031506    -0.15100
H351        H  0.12180493  0.30573322  0.33983670     0.11000
H352        H  0.02511982  0.23932074  0.36431875     0.11000
H353        H  0.03688482  0.19635640  0.36286686     0.11000
H354        H  0.13284236  0.26234542  0.33630683     0.11000
C355        C  0.09931184  0.17561869  0.02551594    -0.15100
C356        C  0.09310414  0.15906475  0.99249076     0.07000
C357        C  0.09753698  0.13274134  0.99116573    -0.15100
C358        C  0.10967758  0.12445235  0.02136459    -0.15100
C359        C  0.11786064  0.14241896  0.05345761     0.07000
C360        C  0.11180685  0.16760334  0.05540045    -0.15100
H361        H  0.09609033  0.19587516  0.02771550     0.11000
H362        H  0.09287674  0.11932430  0.96626402     0.11000
H363        H  0.11502748  0.10559858  0.01860547     0.11000
H364        H  0.11856727  0.18233756  0.07946180     0.11000
C365        C  0.44317859  0.10702332  0.93846588    -0.15100
C366        C  0.47220363  0.10766383  0.93903755     0.07000
C367        C  0.48072423  0.09759096  0.97078445    -0.15100
C368        C  0.46162344  0.08876401  0.00168836    -0.15100
C369        C  0.43334716  0.08955710  0.00170817     0.07000
C370        C  0.42392391  0.09793772  0.96934663    -0.15100
H371        H  0.43599570  0.11497765  0.91467323     0.11000
H372        H  0.00303320  0.09815628  0.97248713     0.11000
H373        H  0.46944260  0.08202310  0.02595465     0.11000
H374        H  0.40219276  0.09856504  0.96827328     0.11000
C375        C  0.97509920  0.21358806  0.97328190    -0.15100
C376        C  0.00593793  0.21933046  0.97761973     0.07000
C377        C  0.02499057  0.23887333  0.00569096    -0.15100
C378        C  0.01398485  0.25366011  0.02821082    -0.15100
C379        C  0.48362321  0.24895301  0.02327081     0.07000
C380        C  0.46396791  0.22852660  0.99606758    -0.15100
H381        H  0.46018914  0.19869907  0.95149490     0.11000
H382        H  0.04885022  0.24357636  0.00953523     0.11000
H383        H  0.02945813  0.26909806  0.04931529     0.11000
H384        H  0.44020141  0.22414352  0.99252604     0.11000
C385        C  0.99188173  0.11761030  0.72984389    -0.15100
C386        C  0.49708968  0.14321495  0.70770350     0.07000
C387        C  0.51615796  0.17390735  0.72114570    -0.15100
C388        C  0.52792014  0.17903855  0.75641611    -0.15100
C389        C  0.02120789  0.15370732  0.77942537     0.07000
C390        C  0.00389726  0.12285508  0.76566193    -0.15100
H391        H  0.97764835  0.09373431  0.72001927     0.11000
H392        H  0.52149545  0.19427435  0.70461845     0.11000
H393        H  0.54143488  0.20303154  0.76624072     0.11000
H394        H  0.99825385  0.10293148  0.78311624     0.11000
C395        C  0.06476775  0.16574989  0.55388711    -0.15100
C396        C  0.03468013  0.13892419  0.55149157     0.07000
C397        C  0.02596339  0.12141777  0.51905275    -0.15100
C398        C  0.04602920  0.13163077  0.48901843    -0.15100
C399        C  0.07537066  0.15948072  0.49074909     0.07000
C400        C  0.08493560  0.17583671  0.52391855    -0.15100
H401        H  0.07213025  0.17992039  0.57840498     0.11000
H402        H  0.00283482  0.10094550  0.51606594     0.11000
H403        H  0.03807875  0.11820021  0.46399766     0.11000
H404        H  0.10746741  0.19716324  0.52628431     0.11000
C405        C  0.47307361  0.22709539  0.49642477    -0.15100
C406        C  0.49326696  0.21834911  0.51351125     0.07000
C407        C  0.02575868  0.23665249  0.50872645    -0.15100
C408        C  0.03791360  0.26366214  0.48759268    -0.15100
C409        C  0.01771048  0.27265475  0.47099672     0.07000
C410        C  0.98521499  0.25409792  0.47538830    -0.15100
H411        H  0.44787043  0.21350048  0.49998451     0.11000
H412        H  0.04176343  0.23045073  0.52181783     0.11000
H413        H  0.06311259  0.27733433  0.48403415     0.11000
H414        H  0.46917416  0.26034241  0.46247161     0.11000
C415        C  0.40785465  0.07990265  0.46713522    -0.15100
C416        C  0.41342406  0.06942908  0.50051315     0.07000
C417        C  0.40958264  0.03893140  0.50203299    -0.15100
C418        C  0.39821153  0.01869580  0.47172247    -0.15100
C419        C  0.39027452  0.02847308  0.43937682     0.07000
C420        C  0.39619082  0.05961154  0.43711680    -0.15100
H421        H  0.41085365  0.10327327  0.46472635     0.11000
H422        H  0.41394453  0.03016166  0.52717178     0.11000
H423        H  0.39305135  0.99457374  0.47461395     0.11000
H424        H  0.38971181  0.06757828  0.41276202     0.11000
C425        C  0.09770956  0.30588212  0.84730990    -0.15100
C426        C  0.06800109  0.28390618  0.86049014     0.07000
C427        C  0.04602842  0.29389229  0.86693889    -0.15100
C428        C  0.05500555  0.32595136  0.86469117    -0.15100
C429        C  0.08581653  0.34836154  0.85505499     0.07000
C430        C  0.10631988  0.33764776  0.84411263    -0.15100
H431        H  0.11507271  0.29892087  0.84198007     0.11000
H432        H  0.02296979  0.27748464  0.87735514     0.11000
H433        H  0.03909730  0.33355601  0.87455996     0.11000
H434        H  0.13050708  0.35448284  0.83764477     0.11000
C435        C  0.13245480  0.02152420  0.97689780    -0.15100
C436        C  0.15204528  0.02819380  0.94653164     0.07000
C437        C  0.18088015  0.05672627  0.94630127    -0.15100
C438        C  0.19051254  0.07727414  0.97617539    -0.15100
C439        C  0.17150316  0.07004049  0.00709554     0.07000
C440        C  0.14199411  0.04225947  0.00670167    -0.15100
H441        H  0.11038944  0.99960857  0.97836596     0.11000
H442        H  0.19676722  0.06260834  0.92357591     0.11000
H443        H  0.21317642  0.09856202  0.97533654     0.11000
H444        H  0.12666735  0.03595322  0.03003481     0.11000
C445        C  0.23875622  0.46353998  0.99682375    -0.15100
C446        C  0.22931492  0.48353087  0.98070356     0.07000
C447        C  0.24789877  0.01617226  0.98459686    -0.15100
C448        C  0.27580450  0.02873629  0.00398258    -0.15100
C449        C  0.28533020  0.00880551  0.02002270     0.07000
C450        C  0.26667873  0.47612590  0.01633285    -0.15100
H451        H  0.22494435  0.43822949  0.99372923     0.11000
H452        H  0.24122609  0.03203641  0.97207354     0.11000
H453        H  0.28959505  0.05406008  0.00694414     0.11000
H454        H  0.27340231  0.46031996  0.02891253     0.11000
C455        C  0.08857011  0.39502600  0.02645182    -0.15100
C456        C  0.07969871  0.40390168  0.99409412     0.07000
C457        C  0.05028244  0.40250116  0.99286645    -0.15100
C458        C  0.02947929  0.39055473  0.02235759    -0.15100
C459        C  0.03756979  0.37954555  0.05355754     0.07000
C460        C  0.06767159  0.38276552  0.05564028    -0.15100
H461        H  0.11105359  0.39600620  0.02856493     0.11000
H462        H  0.04276836  0.40940685  0.96849293     0.11000
H463        H  0.00618253  0.38762712  0.01960858     0.11000
H464        H  0.07434429  0.37402419  0.07917438     0.11000
C465        C  0.12704056  0.09726381  0.47618600    -0.15100
C466        C  0.14497711  0.10762808  0.44420593     0.07000
C467        C  0.17273817  0.10581858  0.44257064    -0.15100
C468        C  0.18269652  0.09481491  0.47224714    -0.15100
C469        C  0.16538024  0.08553941  0.50468706     0.07000
C470        C  0.13713957  0.08644767  0.50601431    -0.15100
H471        H  0.10588430  0.09880609  0.47879192     0.11000
H472        H  0.18748909  0.11400905  0.41869955     0.11000
H473        H  0.20454155  0.09451795  0.47015746     0.11000
H474        H  0.12308653  0.07936364  0.53046947     0.11000
C475        C  0.33396729  0.04782452  0.63334974    -0.15100
C476        C  0.35680483  0.07933360  0.63948946     0.07000
C477        C  0.34686828  0.10111407  0.64732999    -0.15100
C478        C  0.31520770  0.09261650  0.64435443    -0.15100
C479        C  0.29263853  0.06187407  0.63441734     0.07000
C480        C  0.30203314  0.03906054  0.63124796    -0.15100
H481        H  0.34100393  0.03082292  0.62603456     0.11000
H482        H  0.36407060  0.12572560  0.65120672     0.11000
H483        H  0.30874856  0.11066978  0.64716265     0.11000
H484        H  0.28515955  0.01515473  0.62348520     0.11000
C485        C  0.13249612  0.99513858  0.73001830    -0.15100
C486        C  0.16305616  0.01178588  0.71572780     0.07000
C487        C  0.18861571  0.51844986  0.73848088    -0.15100
C488        C  0.18394236  0.50742965  0.77402652    -0.15100
C489        C  0.15348520  0.48915576  0.78806664     0.07000
C490        C  0.12771810  0.48385220  0.76607847    -0.15100
H491        H  0.11237741  0.98954729  0.71284887     0.11000
H492        H  0.21242331  0.03149772  0.72833946     0.11000
H493        H  0.20446443  0.51276307  0.79033440     0.11000
H494        H  0.10401902  0.47015680  0.77627314     0.11000
C495        C  0.10585428  0.47010699  0.52326391    -0.15100
C496        C  0.11673439  0.46226960  0.55486461     0.07000
C497        C  0.11666485  0.43343073  0.55531886    -0.15100
C498        C  0.10716778  0.41364711  0.52458153    -0.15100
C499        C  0.09781723  0.42233220  0.49239717     0.07000
C500        C  0.09661559  0.45049249  0.49251994    -0.15100
H501        H  0.10596311  0.49223302  0.52157871     0.11000
H502        H  0.12525782  0.42674436  0.57896362     0.11000
H503        H  0.10821331  0.39209907  0.52560547     0.11000
H504        H  0.08919145  0.45783759  0.46841331     0.11000
C505        C  0.24139483  0.46016661  0.49943522    -0.15100
C506        C  0.26030614  0.47983043  0.47151630     0.07000
C507        C  0.26241511  0.00904654  0.46544253    -0.15100
C508        C  0.24652711  0.01898105  0.48767193    -0.15100
C509        C  0.22854508  0.99994863  0.51643374     0.07000
C510        C  0.22537062  0.47017536  0.52182356    -0.15100
H511        H  0.23896295  0.43719045  0.50383012     0.11000
H512        H  0.27655571  0.02437723  0.44365276     0.11000
H513        H  0.24921199  0.04205944  0.48316890     0.11000
H514        H  0.21177928  0.45537854  0.54423724     0.11000
C515        C  0.40685966  0.36892710  0.97007823    -0.15100
C516        C  0.38997996  0.34758736  0.94195841     0.07000
C517        C  0.38407650  0.31640457  0.94540764    -0.15100
C518        C  0.39373498  0.30660722  0.97649161    -0.15100
C519        C  0.40986169  0.32773239  0.00504915     0.07000
C520        C  0.41683051  0.35920769  0.00100025    -0.15100
H521        H  0.41146680  0.39293753  0.96878094     0.11000
H522        H  0.37071915  0.29906549  0.92470063     0.11000
H523        H  0.38808665  0.28229147  0.97840813     0.11000
H524        H  0.42933111  0.37626628  0.02227733     0.11000
C525        C  0.28401532  0.25171043  0.97565404    -0.15100
C526        C  0.27793595  0.27666337  0.97944895     0.07000
C527        C  0.25711306  0.27562886  0.00594090    -0.15100
C528        C  0.24145995  0.24932365  0.02748134    -0.15100
C529        C  0.24662017  0.22389564  0.02289238     0.07000
C530        C  0.26818149  0.22520401  0.99726902    -0.15100
H531        H  0.29992452  0.25213023  0.95508046     0.11000
H532        H  0.25215007  0.29470330  0.00921298     0.11000
H533        H  0.22517793  0.24879180  0.04763082     0.11000
H534        H  0.27296967  0.20599463  0.99427611     0.11000
C535        C  0.20565133  0.24292204  0.86507199    -0.15100
C536        C  0.21477657  0.27508546  0.86218152     0.07000
C537        C  0.19192745  0.28307962  0.85261758    -0.15100
C538        C  0.16034563  0.25975671  0.84952306    -0.15100
C539        C  0.15073353  0.22801039  0.85671022     0.07000
C540        C  0.17381849  0.21958692  0.86276000    -0.15100
H541        H  0.22270643  0.23597197  0.87254065     0.11000
H542        H  0.19811859  0.30751702  0.85001816     0.11000
H543        H  0.14292174  0.26695172  0.84569010     0.11000
H544        H  0.16704833  0.19552856  0.86959207     0.11000
C545        C  0.24429188  0.39045056  0.84391468    -0.15100
C546        C  0.27576409  0.41281165  0.85192052     0.07000
C547        C  0.28321582  0.44383435  0.85923192    -0.15100
C548        C  0.25923017  0.45131639  0.86299523    -0.15100
C549        C  0.22737061  0.42769673  0.86032449     0.07000
C550        C  0.22024950  0.39761258  0.84870885    -0.15100
H551        H  0.23784913  0.36617338  0.83892382     0.11000
H552        H  0.30704720  0.46129909  0.86652264     0.11000
H553        H  0.26555360  0.47485181  0.87171836     0.11000
H554        H  0.19604821  0.37901948  0.84599880     0.11000
C555        C  0.37301819  0.45347142  0.98912147    -0.15100
C556        C  0.34443896  0.42477154  0.99039828     0.07000
C557        C  0.32713785  0.41686645  0.02284122    -0.15100
C558        C  0.33724119  0.43776344  0.05242511    -0.15100
C559        C  0.36508085  0.46711719  0.05060112     0.07000
C560        C  0.38324233  0.47434163  0.01884669    -0.15100
H561        H  0.38713083  0.46021533  0.96471665     0.11000
H562        H  0.30511659  0.39497182  0.02493639     0.11000
H563        H  0.32243656  0.43144289  0.07623345     0.11000
H564        H  0.40457674  0.49682316  0.01623277     0.11000
C565        C  0.31691550  0.38998254  0.51759256    -0.15100
C566        C  0.33654704  0.40262686  0.48724163     0.07000
C567        C  0.36649827  0.40530098  0.48860940    -0.15100
C568        C  0.37593040  0.39423490  0.51874749    -0.15100
C569        C  0.35579640  0.38049104  0.54853255     0.07000
C570        C  0.32642502  0.37916985  0.54780285    -0.15100
H571        H  0.29386874  0.38783685  0.51771335     0.11000
H572        H  0.38231727  0.41500668  0.46577941     0.11000
H573        H  0.39844116  0.39519595  0.51799753     0.11000
H574        H  0.31008887  0.36847864  0.57001187     0.11000
C575        C  0.24631060  0.21733238  0.47318541    -0.15100
C576        C  0.22491346  0.22835043  0.47307379     0.07000
C577        C  0.23150519  0.25549552  0.49276279    -0.15100
C578        C  0.25920904  0.27149297  0.51233328    -0.15100
C579        C  0.28050000  0.26034892  0.51274094     0.07000
C580        C  0.27402972  0.23331075  0.49288035    -0.15100
H581        H  0.24190202  0.19675100  0.45764108     0.11000
H582        H  0.21546787  0.26467379  0.49268142     0.11000
H583        H  0.26352728  0.29205204  0.52786808     0.11000
H584        H  0.29005124  0.22411661  0.49315943     0.11000
C585        C  0.25010174  0.19586792  0.62808352    -0.15100
C586        C  0.28201336  0.20451641  0.63192117     0.07000
C587        C  0.28940522  0.18199307  0.64473346    -0.15100
C588        C  0.26556626  0.15080348  0.64993412    -0.15100
C589        C  0.23407392  0.14133855  0.64133037     0.07000
C590        C  0.22636748  0.16448833  0.63242587    -0.15100
H591        H  0.24359924  0.21270576  0.61824365     0.11000
H592        H  0.31366303  0.18795034  0.64829361     0.11000
H593        H  0.27219762  0.13323448  0.65602029     0.11000
H594        H  0.20255893  0.15777478  0.62445757     0.11000
C595        C  0.37941902  0.36069863  0.72861099    -0.15100
C596        C  0.35421027  0.33783152  0.70777647     0.07000
C597        C  0.32409208  0.32257625  0.72324638    -0.15100
C598        C  0.31932423  0.32889461  0.75872155    -0.15100
C599        C  0.34444497  0.35069259  0.78021396     0.07000
C600        C  0.37455237  0.36710395  0.76468005    -0.15100
H601        H  0.40283662  0.37305441  0.71735214     0.11000
H602        H  0.30389925  0.30526307  0.70802425     0.11000
H603        H  0.29578658  0.31605845  0.76966810     0.11000
H604        H  0.39438608  0.38390563  0.78076533     0.11000
C605        C  0.39924254  0.23482514  0.65013432    -0.15100
C606        C  0.42079570  0.26610821  0.64049284     0.07000
C607        C  0.45147185  0.27370045  0.63145450    -0.15100
C608        C  0.45930242  0.24990824  0.62803799    -0.15100
C609        C  0.43635117  0.21805085  0.63281425     0.07000
C610        C  0.40672408  0.21091951  0.64572623    -0.15100
H611        H  0.37515959  0.22820386  0.65620300     0.11000
H612        H  0.46818121  0.29730364  0.62263647     0.11000
H613        H  0.48238862  0.25617304  0.61802300     0.11000
H614        H  0.38865364  0.18670016  0.64989319     0.11000
C615        C  0.44480550  0.32504172  0.43990212    -0.15100
C616        C  0.47450417  0.35238209  0.44299743     0.07000
C617        C  0.48178673  0.36979809  0.47549592    -0.15100
C618        C  0.46053950  0.35944905  0.50457878    -0.15100
C619        C  0.43135855  0.33144529  0.50198327     0.07000
C620        C  0.42349278  0.31479770  0.46890302    -0.15100
H621        H  0.43844678  0.31080018  0.41546669     0.11000
H622        H  0.00453688  0.39065611  0.47913693     0.11000
H623        H  0.46736023  0.37303553  0.52953003     0.11000
H624        H  0.40125554  0.29323357  0.46580969     0.11000
O625        O  0.33294246  0.73956900  0.60733670    -0.83600
C626        C  0.36254928  0.86266521  0.57685238     0.95800
O627        O  0.34125952  0.84575032  0.59905611    -0.72700
O628        O  0.31126212  0.79674802  0.55762628    -0.76300
Al629      Al  0.32478773  0.80159862  0.60601807     1.49000
C630        C  0.30664280  0.77374144  0.53823586     0.91000
O631        O  0.38270951  0.79559945  0.53097321    -0.82500
O632        O  0.40851243  0.80832190  0.63533936    -0.76100
Al633      Al  0.35815099  0.76946615  0.57052043     1.90100
O634        O  0.41943226  0.83251645  0.56469848    -0.75100
O635        O  0.38280600  0.84484556  0.65183817    -0.75000
O636        O  0.38788842  0.86172775  0.57690321    -0.80600
O637        O  0.33437186  0.80621766  0.65555770    -0.78800
O638        O  0.35992334  0.80162828  0.59465684    -1.15000
O639        O  0.30029534  0.75740982  0.61507210    -0.74200
C640        C  0.30674492  0.73558330  0.61824743     0.96500
C641        C  0.40992898  0.81931101  0.53401501     0.92900
Al642      Al  0.39690289  0.83451498  0.60660816     1.55600
O643        O  0.32214734  0.75994837  0.54307596    -0.78800
C644        C  0.35777566  0.82923224  0.66999012     0.97100
C645        C  0.40733676  0.78359577  0.62259539     0.92000
O646        O  0.39352975  0.77170001  0.59302132    -0.84100
O647        O  0.25122532  0.82606746  0.88564857    -0.83600
C648        C  0.37401101  0.85587862  0.91254713     0.95800
O649        O  0.35770168  0.83560025  0.88871703    -0.72700
O650        O  0.31006238  0.80452117  0.93070619    -0.76300
Al651      Al  0.31327468  0.81858540  0.88300903     1.49000
C652        C  0.28880115  0.80100789  0.95214649     0.91000
O653        O  0.30876808  0.87643280  0.96057096    -0.82500
O654        O  0.31932015  0.90249828  0.85680122    -0.76100
Al655      Al  0.28205920  0.85163147  0.92147983     1.90100
O656        O  0.34496704  0.91347724  0.92711721    -0.75100
O657        O  0.35564540  0.87712989  0.83843606    -0.75000
O658        O  0.37360731  0.88154698  0.91331202    -0.80600
O659        O  0.31620735  0.82899607  0.83377147    -0.78800
O660        O  0.31352222  0.85367410  0.89613154    -1.15000
O661        O  0.26866931  0.79343517  0.87541365    -0.74200
C662        C  0.24668080  0.79976033  0.87417732     0.96500
C663        C  0.33223892  0.90373295  0.95782024     0.92900
Al664      Al  0.34612444  0.89091654  0.88447910     1.55600
O665        O  0.27450066  0.81618009  0.94847703    -0.78800
C666        C  0.33859113  0.85283019  0.81936707     0.97100
C667        C  0.29436858  0.90050168  0.86975787     0.92000
O668        O  0.28312640  0.88666720  0.89939549    -0.84100
O669        O  0.25700876  0.57665993  0.60924429    -0.83600
C670        C  0.13345451  0.98641836  0.58390515     0.95800
O671        O  0.14948048  0.98186375  0.60770959    -0.72700
O672        O  0.19732300  0.49636740  0.56618686    -0.76300
Al673      Al  0.19409902  0.50827590  0.61356353     1.49000
C674        C  0.21823424  0.51368016  0.54410043     0.91000
O675        O  0.19988956  0.57086286  0.53440666    -0.82500
O676        O  0.19038893  0.58771356  0.63794855    -0.76100
Al677      Al  0.22639514  0.57199567  0.57359789     1.90100
O678        O  0.16461443  0.57333182  0.56793374    -0.75100
O679        O  0.15259316  0.52649892  0.65694308    -0.75000
O680        O  0.13484807  0.51294089  0.58258845    -0.80600
O681        O  0.19124510  0.51657712  0.66265547    -0.78800
O682        O  0.19475053  0.54346955  0.59943172    -1.15000
O683        O  0.23859524  0.52677008  0.62147323    -0.74200
C684        C  0.26094190  0.55484109  0.62189854     0.96500
C685        C  0.17711947  0.57589245  0.53719951     0.92900
Al686      Al  0.16286272  0.54949520  0.61079248     1.55600
O687        O  0.23265418  0.54314636  0.54703973    -0.78800
C688        C  0.16916542  0.51894587  0.67652534     0.97100
C689        C  0.21554873  0.61005930  0.62465058     0.92000
O690        O  0.22669630  0.60668386  0.59535892    -0.84100
O691        O  0.17637511  0.91118712  0.88518491    -0.83600
C692        C  0.14559677  0.50359469  0.91854413     0.95800
O693        O  0.16693154  0.50820120  0.89635220    -0.72700
O694        O  0.19736662  0.98896478  0.93705139    -0.76300
Al695      Al  0.18370980  0.98090516  0.88861280     1.49000
C696        C  0.20284684  0.97065073  0.95556198     0.91000
O697        O  0.12738014  0.91612854  0.96327456    -0.82500
O698        O  0.09920682  0.90324532  0.86005339    -0.76100
Al699      Al  0.15146752  0.91509041  0.92297843     1.90100
O700        O  0.08996237  0.91676321  0.93113779    -0.75100
O701        O  0.12496022  0.96563109  0.84352140    -0.75000
O702        O  0.12054166  0.97719856  0.91868180    -0.80600
O703        O  0.17387377  0.97666114  0.83924256    -0.78800
O704        O  0.14886332  0.94546645  0.89975861    -1.15000
O705        O  0.20869305  0.96177857  0.87854932    -0.74200
C706        C  0.20248239  0.93366612  0.87451924     0.96500
C707        C  0.10021611  0.91300598  0.96131653     0.92900
Al708      Al  0.11150664  0.94115421  0.88882517     1.55600
O709        O  0.18786386  0.94147321  0.95008536    -0.78800
C710        C  0.15012631  0.97604042  0.82532163     0.97100
C711        C  0.10063839  0.87966727  0.87236366     0.92000
O712        O  0.11595619  0.88186616  0.90081305    -0.84100
O713        O  0.41991065  0.66688494  0.60819195    -0.83600
C714        C  0.01054712  0.63341637  0.57913305     0.95800
O715        O  0.01562909  0.65537370  0.60087488    -0.72700
O716        O  0.49847504  0.68743184  0.55927408    -0.76300
Al717      Al  0.48913064  0.67323029  0.60763899     1.49000
C718        C  0.48044248  0.69262939  0.53972379     0.91000
O719        O  0.42585191  0.61726244  0.53143775    -0.82500
O720        O  0.41070284  0.59024648  0.63526132    -0.76100
Al721      Al  0.42414952  0.64159183  0.57111245     1.90100
O722        O  0.42378911  0.57902916  0.56441801    -0.75100
O723        O  0.47256259  0.61416610  0.65265677    -0.75000
O724        O  0.48392186  0.60868787  0.57856800    -0.80600
O725        O  0.48380022  0.66322578  0.65691224    -0.78800
O726        O  0.45368364  0.63861427  0.59560307    -1.15000
O727        O  0.47037496  0.69876168  0.61679831    -0.74200
C728        C  0.44232578  0.69289642  0.61949070     0.96500
C729        C  0.42172682  0.58969248  0.53370829     0.92900
Al730      Al  0.44821575  0.60085231  0.60720964     1.55600
O731        O  0.45126915  0.67772001  0.54451417    -0.78800
C732        C  0.48326674  0.63951393  0.67078735     0.97100
C733        C  0.38769064  0.59217095  0.62205490     0.92000
O734        O  0.39023971  0.60627146  0.59253792    -0.84100
O735        O  0.08377757  0.74904943  0.88580912    -0.83600
C736        C  0.49598606  0.62456746  0.91016697     0.95800
O737        O  0.49095142  0.64019710  0.88632176    -0.72700
O738        O  0.00358965  0.68796935  0.92797733    -0.76300
Al739      Al  0.01630445  0.68498225  0.88082837     1.49000
C740        C  0.02029857  0.70946674  0.95004860     0.91000
O741        O  0.07808747  0.69269141  0.96143733    -0.82500
O742        O  0.09749993  0.68355110  0.85881911    -0.76100
Al743      Al  0.07940780  0.71889740  0.92194391     1.90100
O744        O  0.08243620  0.65792383  0.92864412    -0.75100
O745        O  0.03679213  0.64458008  0.83825685    -0.75000
O746        O  0.02274989  0.62672883  0.91195196    -0.80600
O747        O  0.02523596  0.68217957  0.83207266    -0.78800
O748        O  0.05182434  0.68671963  0.89572881    -1.15000
O749        O  0.03381693  0.72954526  0.87304633    -0.74200
C750        C  0.06164352  0.75236824  0.87290446     0.96500
C751        C  0.08376074  0.67025533  0.95929402     0.92900
Al752      Al  0.05914567  0.65541792  0.88489976     1.55600
O753        O  0.04972305  0.72463541  0.94740267    -0.78800
C754        C  0.02844614  0.66040958  0.81850641     0.97100
C755        C  0.11929218  0.70895042  0.87266586     0.92000
O756        O  0.11498491  0.72003630  0.90155343    -0.84100
O757        O  0.11049622  0.71797328  0.39766559    -0.83600
C758        C  0.13804479  0.62511142  0.41550319     0.95800
O759        O  0.11330327  0.62721957  0.41636548    -0.72700
O760        O  0.08393850  0.65885098  0.42735069    -0.76300
Al761      Al  0.10453823  0.65412488  0.38564875     1.49000
C762        C  0.09522738  0.67157084  0.45774606     0.91000
O763        O  0.18269122  0.72848051  0.44434428    -0.82500
O764        O  0.20168406  0.72846869  0.37080997    -0.76100
Al765      Al  0.14623284  0.71948583  0.41876008     1.90100
O766        O  0.19261680  0.69107594  0.42953315    -0.75100
O767        O  0.16430597  0.67806452  0.33294161    -0.75000
O768        O  0.15863677  0.64040938  0.39175424    -0.80600
O769        O  0.11576176  0.64058628  0.34141978    -0.78800
O770        O  0.14255674  0.68633888  0.39520291    -1.15000
O771        O  0.09394356  0.68083568  0.35582887    -0.74200
C772        C  0.09676334  0.70655247  0.36787699     0.96500
C773        C  0.19813263  0.71458121  0.44852213     0.92900
Al774      Al  0.17645209  0.68455962  0.38209850     1.55600
O775        O  0.12290163  0.69461115  0.45958174    -0.78800
C776        C  0.13941265  0.65504624  0.32113094     0.97100
C777        C  0.19619043  0.75104077  0.36886260     0.92000
O778        O  0.17063466  0.74798811  0.38078359    -0.84100
O779        O  0.24084428  0.62254427  0.10859475    -0.83600
C780        C  0.14059855  0.64139935  0.07950572     0.95800
O781        O  0.13673675  0.61575270  0.09349661    -0.72700
O782        O  0.16329615  0.58688158  0.06440763    -0.76300
Al783      Al  0.16751621  0.60394237  0.11144814     1.49000
C784        C  0.18246168  0.59091341  0.03981031     0.91000
O785        O  0.22939260  0.67179918  0.04060109    -0.82500
O786        O  0.23546179  0.69057511  0.14625837    -0.76100
Al787      Al  0.23303017  0.64661404  0.07652734     1.90100
O788        O  0.22485810  0.70333773  0.07867258    -0.75100
O789        O  0.17358687  0.66061352  0.15574894    -0.75000
O790        O  0.16523002  0.66724828  0.08537217    -0.80600
O791        O  0.16447485  0.61283459  0.16176610    -0.78800
O792        O  0.19995566  0.64207433  0.10134809    -1.15000
O793        O  0.19430232  0.58685932  0.12844123    -0.74200
C794        C  0.22393871  0.59812760  0.12647541     0.96500
C795        C  0.23230272  0.69804913  0.04811497     0.92900
Al796      Al  0.19951450  0.67695172  0.11542805     1.55600
O797        O  0.21070019  0.61227172  0.04312134    -0.78800
C798        C  0.16365041  0.63623368  0.17436809     0.97100
C799        C  0.26163841  0.69624234  0.13331495     0.92000
O800        O  0.26302281  0.68240656  0.10477058    -0.84100
O801        O  0.26751327  0.88579300  0.38473542    -0.83600
C802        C  0.36747023  0.50471809  0.41362701     0.95800
O803        O  0.37138312  0.98297414  0.39982218    -0.72700
O804        O  0.34506908  0.92788645  0.42976199    -0.76300
Al805      Al  0.34075108  0.94052009  0.38236800     1.49000
C806        C  0.32575096  0.91244201  0.45414622     0.91000
O807        O  0.27834449  0.94566730  0.45323172    -0.82500
O808        O  0.27180081  0.95909250  0.34790873    -0.76100
Al809      Al  0.27499704  0.91725628  0.41705113     1.90100
O810        O  0.28298514  0.98216627  0.41571817    -0.75100
O811        O  0.33354616  0.99048319  0.33771053    -0.75000
O812        O  0.34268955  0.50580690  0.40799353    -0.80600
O813        O  0.34381257  0.95251216  0.33190288    -0.78800
O814        O  0.30801405  0.94600062  0.39235190    -1.15000
O815        O  0.31430340  0.89670701  0.36564520    -0.74200
C816        C  0.28467263  0.87838028  0.36721788     0.96500
C817        C  0.27523586  0.96897030  0.44606951     0.92900
Al818      Al  0.30809324  0.98120869  0.37841438     1.55600
O819        O  0.29741329  0.90516082  0.45035474    -0.78800
C820        C  0.34403494  0.97647176  0.31918104     0.97100
C821        C  0.24574562  0.93817593  0.36063626     0.92000
O822        O  0.24471727  0.92288131  0.38900419    -0.84100
O823        O  0.39905864  0.61266982  0.09785533    -0.83600
C824        C  0.37178536  0.99178727  0.07862092     0.95800
O825        O  0.39625779  0.51862346  0.07713351    -0.72700
O826        O  0.42559958  0.57929927  0.06536550    -0.76300
Al827      Al  0.40523990  0.55417921  0.10761942     1.49000
C828        C  0.41421192  0.58195097  0.03547696     0.91000
O829        O  0.32694741  0.55135988  0.04960357    -0.82500
O830        O  0.30737873  0.53139755  0.12170921    -0.76100
Al831      Al  0.36345197  0.57877461  0.07581431     1.90100
O832        O  0.31814029  0.50409578  0.06317482    -0.75100
O833        O  0.34500172  0.51880646  0.16023597    -0.75000
O834        O  0.35122681  0.98677935  0.10225840    -0.80600
O835        O  0.39361669  0.52945802  0.15224798    -0.78800
O836        O  0.36729313  0.54892476  0.09841054    -1.15000
O837        O  0.41668327  0.59121501  0.13746563    -0.74200
C838        C  0.41389567  0.61440577  0.12667005     0.96500
C839        C  0.31213936  0.52206641  0.04465888     0.92900
Al840      Al  0.33331198  0.51319613  0.11102032     1.55600
O841        O  0.38688324  0.57834537  0.03457375    -0.78800
C842        C  0.36982150  0.52056157  0.17238825     0.97100
C843        C  0.31294855  0.55938918  0.12486146     0.92000
O844        O  0.33888591  0.58203638  0.11419997    -0.84100
O845        O  0.39229325  0.76183927  0.11198381    -0.83600
C846        C  0.01284783  0.85755302  0.07871152     0.95800
O847        O  0.49173189  0.86284611  0.09136719    -0.72700
O848        O  0.43617505  0.83725934  0.06225841    -0.76300
Al849      Al  0.44940025  0.83429199  0.10994868     1.49000
C850        C  0.41927992  0.81723173  0.03890685     0.91000
O851        O  0.44880124  0.76633715  0.04197881    -0.82500
O852        O  0.46474178  0.76364064  0.14721168    -0.76100
Al853      Al  0.42217548  0.76630725  0.07866248     1.90100
O854        O  0.48625897  0.77210962  0.07893499    -0.75100
O855        O  0.49806821  0.82545094  0.15584938    -0.75000
O856        O  0.01261725  0.83222609  0.08534871    -0.80600
O857        O  0.46237212  0.83900750  0.16016249    -0.78800
O858        O  0.45270332  0.79990121  0.10159884    -1.15000
O859        O  0.40616133  0.81034230  0.12813395    -0.74200
C860        C  0.38686929  0.78086569  0.12881119     0.96500
C861        C  0.47235503  0.76352994  0.04890701     0.92900
Al862      Al  0.48723870  0.79876048  0.11569006     1.55600
O863        O  0.41044470  0.78859916  0.04431694    -0.78800
C864        C  0.48547284  0.83794114  0.17347400     0.97100
C865        C  0.44337573  0.73740993  0.13521278     0.92000
O866        O  0.42711990  0.73603126  0.10757909    -0.84100
O867        O  0.12011081  0.88805944  0.39504629    -0.83600
C868        C  0.49929836  0.85942072  0.41528922     0.95800
O869        O  0.02600403  0.88407628  0.41735603    -0.72700
O870        O  0.08679579  0.91420230  0.42891527    -0.76300
Al871      Al  0.06149997  0.89411995  0.38666639     1.49000
C872        C  0.08985502  0.90285718  0.45850825     0.91000
O873        O  0.05969346  0.81528887  0.44228844    -0.82500
O874        O  0.03987547  0.79718220  0.36755415    -0.76100
Al875      Al  0.08669629  0.85214479  0.41674581     1.90100
O876        O  0.01216129  0.80473284  0.42725116    -0.75100
O877        O  0.02658163  0.83541352  0.33157660    -0.75000
O878        O  0.49439160  0.83909627  0.39114412    -0.80600
O879        O  0.03665441  0.88356600  0.34221853    -0.78800
O880        O  0.05666092  0.85598677  0.39434229    -1.15000
O881        O  0.09844463  0.90647284  0.35666202    -0.74200
C882        C  0.12167484  0.90350226  0.36688130     0.96500
C883        C  0.03043387  0.79938633  0.44619498     0.92900
Al884      Al  0.02123255  0.82206338  0.38030976     1.55600
O885        O  0.08637263  0.87548087  0.45883961    -0.78800
C886        C  0.02820198  0.86054412  0.32079123     0.97100
C887        C  0.06762651  0.80212399  0.36568651     0.92000
O888        O  0.09022962  0.82757351  0.37796002    -0.84100
C889        C  0.48085757  0.85507301  0.23700936    -0.15100
C890        C  0.49833887  0.85021958  0.21021012     0.07000
C891        C  0.02786753  0.85400031  0.21971479    -0.15100
C892        C  0.03845252  0.85967342  0.25558312    -0.15100
C893        C  0.02013382  0.86234587  0.28270658     0.07000
C894        C  0.49175120  0.86111237  0.27320660    -0.15100
H895        H  0.45809050  0.85234101  0.23047284     0.11000
H896        H  0.04221159  0.85093008  0.19967560     0.11000
H897        H  0.06031431  0.86042469  0.26250993     0.11000
H898        H  0.47714166  0.86273450  0.29407252     0.11000
C899        C  0.40378454  0.65204358  0.15924898    -0.15100
C900        C  0.42618164  0.64432491  0.14677572     0.07000
C901        C  0.45675670  0.66882118  0.13988515    -0.15100
C902        C  0.46370847  0.70030954  0.14153558    -0.15100
C903        C  0.43998652  0.70760354  0.14922888     0.07000
C904        C  0.41041971  0.68334248  0.15982418    -0.15100
H905        H  0.37980514  0.63357772  0.16375072     0.11000
H906        H  0.47410032  0.66359121  0.12895254     0.11000
H907        H  0.48646852  0.71859967  0.13230753     0.11000
H908        H  0.39160205  0.68828431  0.16509772     0.11000
C909        C  0.16062003  0.89436570  0.33638324    -0.15100
C910        C  0.15155474  0.91630978  0.34688154     0.07000
C911        C  0.17500426  0.94779872  0.35194033    -0.15100
C912        C  0.20691055  0.95620857  0.35093090    -0.15100
C913        C  0.21558490  0.93310033  0.34556465     0.07000
C914        C  0.19226601  0.90251364  0.33638799    -0.15100
H915        H  0.14302854  0.86978210  0.33316883     0.11000
H916        H  0.16875793  0.96495022  0.36113040     0.11000
H917        H  0.22448534  0.97981877  0.35891050     0.11000
H918        H  0.19826804  0.88418657  0.33286643     0.11000
C919        C  0.36127186  0.97178329  0.25567833    -0.15100
C920        C  0.35581637  0.98904418  0.28232730     0.07000
C921        C  0.35945261  0.01857178  0.27289308    -0.15100
C922        C  0.36619320  0.02963022  0.23737655    -0.15100
C923        C  0.37013594  0.51184376  0.21048691     0.07000
C924        C  0.36839783  0.48317488  0.21982461    -0.15100
H925        H  0.35858524  0.44899586  0.26209573     0.11000
H926        H  0.35579199  0.03274794  0.29271392     0.11000
H927        H  0.36701473  0.05155301  0.23050291     0.11000
H928        H  0.37071874  0.46884371  0.19902935     0.11000
C929        C  0.30166065  0.75279424  0.13674317    -0.15100
C930        C  0.29141700  0.72174087  0.14808919     0.07000
C931        C  0.31323068  0.71445486  0.16321304    -0.15100
C932        C  0.34520201  0.73685552  0.16325658    -0.15100
C933        C  0.35598489  0.76650665  0.14689370     0.07000
C934        C  0.33384805  0.77512524  0.13609390    -0.15100
H935        H  0.28519045  0.75864407  0.12418415     0.11000
H936        H  0.30595124  0.69056202  0.17144916     0.11000
H937        H  0.36182674  0.72949883  0.17142807     0.11000
H938        H  0.34143675  0.79744261  0.12267770     0.11000
C939        C  0.25590535  0.54342144  0.12987037    -0.15100
C940        C  0.28766574  0.56533431  0.13750612     0.07000
C941        C  0.29507160  0.59469721  0.15187890    -0.15100
C942        C  0.27188846  0.60321333  0.15481058    -0.15100
C943        C  0.24103790  0.58305080  0.14214701     0.07000
C944        C  0.23275927  0.55230890  0.13189446    -0.15100
H945        H  0.24949629  0.52053990  0.11870059     0.11000
H946        H  0.31918681  0.61193433  0.15831754     0.11000
H947        H  0.27900078  0.62717755  0.16263386     0.11000
H948        H  0.20946119  0.53651338  0.12131265     0.11000
C949        C  0.21394864  0.80408564  0.34151469    -0.15100
C950        C  0.22135792  0.78219029  0.35621479     0.07000
C951        C  0.25306412  0.79198559  0.36423094    -0.15100
C952        C  0.27614955  0.82393686  0.36222888    -0.15100
C953        C  0.26785946  0.84633959  0.35153829     0.07000
C954        C  0.23710247  0.83569789  0.33848672    -0.15100
H955        H  0.18987660  0.79723399  0.33480135     0.11000
H956        H  0.25943261  0.77553844  0.37571289     0.11000
H957        H  0.29936175  0.83142395  0.37315443     0.11000
H958        H  0.23000753  0.85252403  0.33033154     0.11000
C959        C  0.14235672  0.61966839  0.27437693    -0.15100
C960        C  0.13865198  0.64553199  0.28324745     0.07000
C961        C  0.13991307  0.66585503  0.25585750    -0.15100
C962        C  0.14617621  0.66137057  0.22020929    -0.15100
C963        C  0.15188534  0.63671596  0.21122193     0.07000
C964        C  0.14891143  0.61521423  0.23840645    -0.15100
H965        H  0.14201491  0.60411110  0.29554980     0.11000
H966        H  0.13747035  0.68609868  0.26239261     0.11000
H967        H  0.14792319  0.67819383  0.19989274     0.11000
H968        H  0.15326417  0.59610712  0.23228755     0.11000
C969        C  0.10265079  0.78184789  0.34293676    -0.15100
C970        C  0.07274937  0.77614242  0.35292764     0.07000
C971        C  0.04847519  0.74459563  0.35649074    -0.15100
C972        C  0.05496407  0.71972286  0.35498441    -0.15100
C973        C  0.08565140  0.72583189  0.34890266     0.07000
C974        C  0.10882088  0.75687012  0.34031835    -0.15100
H975        H  0.12180861  0.80573672  0.33984033     0.11000
H976        H  0.02512202  0.73932279  0.36431419     0.11000
H977        H  0.03688770  0.69635884  0.36286411     0.11000
H978        H  0.13284690  0.76234944  0.33631226     0.11000
C979        C  0.09931369  0.67561883  0.02551507    -0.15100
C980        C  0.09310690  0.65906484  0.99249002     0.07000
C981        C  0.09754052  0.63274192  0.99116576    -0.15100
C982        C  0.10968112  0.62445350  0.02136512    -0.15100
C983        C  0.11786337  0.64242034  0.05345798     0.07000
C984        C  0.11180870  0.66760419  0.05540020    -0.15100
H985        H  0.09609148  0.69587493  0.02771413     0.11000
H986        H  0.09288093  0.61932476  0.96626408     0.11000
H987        H  0.11503164  0.60560022  0.01860661     0.11000
H988        H  0.11856836  0.68233840  0.07946127     0.11000
C989        C  0.44318034  0.60702039  0.93846558    -0.15100
C990        C  0.47220569  0.60766163  0.93903767     0.07000
C991        C  0.48072651  0.59758924  0.97078476    -0.15100
C992        C  0.46162565  0.58876213  0.00168856    -0.15100
C993        C  0.43334909  0.58955465  0.00170790     0.07000
C994        C  0.42392562  0.59793470  0.96934615    -0.15100
H995        H  0.43599726  0.61497432  0.91467274     0.11000
H996        H  0.00303592  0.59815288  0.97248502     0.11000
H997        H  0.46944494  0.58202170  0.02595508     0.11000
H998        H  0.40219423  0.59856157  0.96827249     0.11000
C999        C  0.97510379  0.71358974  0.97328083    -0.15100
C1000       C  0.00594317  0.71933379  0.97761734     0.07000
C1001       C  0.02499695  0.73887983  0.00568596    -0.15100
C1002       C  0.01399120  0.75366706  0.02820510    -0.15100
C1003       C  0.48362399  0.74895238  0.02327178     0.07000
C1004       C  0.46396890  0.72852762  0.99606717    -0.15100
H1005       H  0.46018980  0.69870101  0.95149341     0.11000
H1006       H  0.04885726  0.74358451  0.00952906     0.11000
H1007       H  0.02946509  0.76910701  0.04930801     0.11000
H1008       H  0.44020321  0.72414661  0.99252437     0.11000
C1009       C  0.99188221  0.61760994  0.72984324    -0.15100
C1010       C  0.49709071  0.64321255  0.70770419     0.07000
C1011       C  0.51615824  0.67390510  0.72114646    -0.15100
C1012       C  0.52792091  0.67903666  0.75641670    -0.15100
C1013       C  0.02120920  0.65370645  0.77942468     0.07000
C1014       C  0.00389825  0.62285434  0.76566100    -0.15100
H1015       H  0.97764869  0.59373393  0.72001832     0.11000
H1016       H  0.52149465  0.69427190  0.70461952     0.11000
H1017       H  0.54143488  0.70302972  0.76624132     0.11000
H1018       H  0.99825508  0.60293058  0.78311495     0.11000
C1019       C  0.06476914  0.66575030  0.55388903    -0.15100
C1020       C  0.03468139  0.63892484  0.55149280     0.07000
C1021       C  0.02596477  0.62141877  0.51905375    -0.15100
C1022       C  0.04603083  0.63163212  0.48901978    -0.15100
C1023       C  0.07537231  0.65948192  0.49075089     0.07000
C1024       C  0.08493720  0.67583740  0.52392066    -0.15100
H1025       H  0.07213149  0.67992042  0.57840711     0.11000
H1026       H  0.00283619  0.60094676  0.51606651     0.11000
H1027       H  0.03808042  0.61820182  0.46399856     0.11000
H1028       H  0.10746908  0.69716377  0.52628682     0.11000
C1029       C  0.47307385  0.72709249  0.49642437    -0.15100
C1030       C  0.49326795  0.71834859  0.51351382     0.07000
C1031       C  0.02575952  0.73665466  0.50872788    -0.15100
C1032       C  0.03791401  0.76366394  0.48759359    -0.15100
C1033       C  0.01771038  0.77265497  0.47099574     0.07000
C1034       C  0.98521493  0.75409701  0.47538612    -0.15100
H1035       H  0.44787068  0.71349573  0.49998159     0.11000
H1036       H  0.04176471  0.73045407  0.52182075     0.11000
H1037       H  0.06311299  0.77733704  0.48403620     0.11000
H1038       H  0.46917350  0.76033724  0.46246827     0.11000
C1039       C  0.40785376  0.57990092  0.46713518    -0.15100
C1040       C  0.41342384  0.56942742  0.50051279     0.07000
C1041       C  0.40958277  0.53892984  0.50203206    -0.15100
C1042       C  0.39821142  0.51869439  0.47172135    -0.15100
C1043       C  0.39027374  0.52847152  0.43937607     0.07000
C1044       C  0.39618970  0.55960990  0.43711666    -0.15100
H1045       H  0.41085244  0.60327147  0.46472669     0.11000
H1046       H  0.41394517  0.53016012  0.52717045     0.11000
H1047       H  0.39305152  0.49457224  0.47461252     0.11000
H1048       H  0.38971023  0.56757667  0.41276217     0.11000
C1049       C  0.09771259  0.80588046  0.84730690    -0.15100
C1050       C  0.06800405  0.78390457  0.86048722     0.07000
C1051       C  0.04603113  0.79389046  0.86693563    -0.15100
C1052       C  0.05500804  0.82594945  0.86468760    -0.15100
C1053       C  0.08581910  0.84835964  0.85505158     0.07000
C1054       C  0.10632270  0.83764607  0.84410947    -0.15100
H1055       H  0.11507564  0.79891939  0.84197737     0.11000
H1056       H  0.02297261  0.77748284  0.87735185     0.11000
H1057       H  0.03909983  0.83355397  0.87455608     0.11000
H1058       H  0.13050988  0.85448124  0.83764179     0.11000
C1059       C  0.13245851  0.52152815  0.97690059    -0.15100
C1060       C  0.15204863  0.52819716  0.94653428     0.07000
C1061       C  0.18088416  0.55672894  0.94630428    -0.15100
C1062       C  0.19051700  0.57727681  0.97617843    -0.15100
C1063       C  0.17150761  0.57004394  0.00709843     0.07000
C1064       C  0.14199830  0.54226332  0.00670449    -0.15100
H1065       H  0.11039250  0.49961279  0.97836870     0.11000
H1066       H  0.19677127  0.56261055  0.92357882     0.11000
H1067       H  0.21318147  0.59856451  0.97533965     0.11000
H1068       H  0.12667143  0.53595742  0.03003758     0.11000
C1069       C  0.23875746  0.96353831  0.99682172    -0.15100
C1070       C  0.22931297  0.98352827  0.98070573     0.07000
C1071       C  0.24790463  0.51617500  0.98458903    -0.15100
C1072       C  0.27581064  0.52873822  0.00397407    -0.15100
C1073       C  0.28533265  0.50880640  0.02001926     0.07000
C1074       C  0.26667970  0.97612512  0.01633148    -0.15100
H1075       H  0.22494855  0.93822798  0.99372290     0.11000
H1076       H  0.24123463  0.53203993  0.97206190     0.11000
H1077       H  0.28960410  0.55406210  0.00693142     0.11000
H1078       H  0.27340610  0.96031985  0.02890740     0.11000
C1079       C  0.08857090  0.89502713  0.02645049    -0.15100
C1080       C  0.07969808  0.90389875  0.99409092     0.07000
C1081       C  0.05028054  0.90249545  0.99286150    -0.15100
C1082       C  0.02947798  0.89055045  0.02235332    -0.15100
C1083       C  0.03757028  0.87954564  0.05355562     0.07000
C1084       C  0.06767304  0.88276816  0.05563963    -0.15100
H1085       H  0.11105557  0.89600958  0.02856489     0.11000
H1086       H  0.04276523  0.90939778  0.96848665     0.11000
H1087       H  0.00618023  0.88762043  0.01960324     0.11000
H1088       H  0.07434703  0.87402990  0.07917543     0.11000
C1089       C  0.12704157  0.59726327  0.47618562    -0.15100
C1090       C  0.14497820  0.60762827  0.44420578     0.07000
C1091       C  0.17273933  0.60581884  0.44257014    -0.15100
C1092       C  0.18269771  0.59481484  0.47224638    -0.15100
C1093       C  0.16538141  0.58553895  0.50468625     0.07000
C1094       C  0.13714060  0.58644685  0.50601346    -0.15100
H1095       H  0.10588508  0.59880535  0.47879179     0.11000
H1096       H  0.18749029  0.61400973  0.41869915     0.11000
H1097       H  0.20454289  0.59451808  0.47015661     0.11000
H1098       H  0.12308731  0.57936235  0.53046874     0.11000
C1099       C  0.33396696  0.54782330  0.63335238    -0.15100
C1100       C  0.35680494  0.57933254  0.63949024     0.07000
C1101       C  0.34686876  0.60111342  0.64732990    -0.15100
C1102       C  0.31520821  0.59261612  0.64435515    -0.15100
C1103       C  0.29263853  0.56187345  0.63441963     0.07000
C1104       C  0.30203280  0.53905956  0.63125140    -0.15100
H1105       H  0.34100317  0.53082116  0.62603805     0.11000
H1106       H  0.36407143  0.62572519  0.65120542     0.11000
H1107       H  0.30874944  0.61066976  0.64716257     0.11000
H1108       H  0.28515879  0.51515343  0.62348997     0.11000
C1109       C  0.13249454  0.49513993  0.73001879    -0.15100
C1110       C  0.16305467  0.51178622  0.71572807     0.07000
C1111       C  0.18861730  0.01844989  0.73848058    -0.15100
C1112       C  0.18394412  0.00742921  0.77402606    -0.15100
C1113       C  0.15348692  0.98915443  0.78806580     0.07000
C1114       C  0.12771963  0.98385028  0.76607762    -0.15100
H1115       H  0.11237613  0.48954909  0.71284961     0.11000
H1116       H  0.21242168  0.53149695  0.72833967     0.11000
H1117       H  0.20446616  0.01276292  0.79033400     0.11000
H1118       H  0.10402071  0.97015421  0.77627194     0.11000
C1119       C  0.10585568  0.97010855  0.52326376    -0.15100
C1120       C  0.11673359  0.96226996  0.55486543     0.07000
C1121       C  0.11666161  0.93342985  0.55532086    -0.15100
C1122       C  0.10716424  0.91364608  0.52458352    -0.15100
C1123       C  0.09781603  0.92233235  0.49239818     0.07000
C1124       C  0.09661682  0.95049394  0.49251988    -0.15100
H1125       H  0.10596653  0.99223544  0.52157773     0.11000
H1126       H  0.12525273  0.92674264  0.57896622     0.11000
H1127       H  0.10820781  0.89209708  0.52560826     0.11000
H1128       H  0.08919464  0.95784000  0.46841258     0.11000
C1129       C  0.24139384  0.96016676  0.49943437    -0.15100
C1130       C  0.26030635  0.97983104  0.47151646     0.07000
C1131       C  0.26241458  0.50904578  0.46544248    -0.15100
C1132       C  0.24652738  0.51898059  0.48767274    -0.15100
C1133       C  0.22854629  0.49994852  0.51643524     0.07000
C1134       C  0.22536890  0.97017521  0.52182195    -0.15100
H1135       H  0.23896162  0.93719040  0.50382913     0.11000
H1136       H  0.27655442  0.52437623  0.44365193     0.11000
H1137       H  0.24921192  0.54205884  0.48316962     0.11000
H1138       H  0.21177685  0.95537818  0.54423488     0.11000
C1139       C  0.40686043  0.86892815  0.97008103    -0.15100
C1140       C  0.38998231  0.84758907  0.94196000     0.07000
C1141       C  0.38407967  0.81640651  0.94540825    -0.15100
C1142       C  0.39373737  0.80660851  0.97649228    -0.15100
C1143       C  0.40986252  0.82773297  0.00505093     0.07000
C1144       C  0.41683045  0.85920803  0.00100310    -0.15100
H1145       H  0.41146682  0.89293816  0.96878457     0.11000
H1146       H  0.37072343  0.79906787  0.92470010     0.11000
H1147       H  0.38808980  0.78229307  0.97840793     0.11000
H1148       H  0.42932998  0.87626622  0.02228133     0.11000
C1149       C  0.28401638  0.75171068  0.97565310    -0.15100
C1150       C  0.27794118  0.77666617  0.97945050     0.07000
C1151       C  0.25712307  0.77563554  0.00594653    -0.15100
C1152       C  0.24146999  0.74933124  0.02748836    -0.15100
C1153       C  0.24662535  0.72390037  0.02289665     0.07000
C1154       C  0.26818251  0.72520521  0.99726949    -0.15100
H1155       H  0.29992188  0.75212766  0.95507629     0.11000
H1156       H  0.25216360  0.79471200  0.00922050     0.11000
H1157       H  0.22519125  0.74880224  0.04764085     0.11000
H1158       H  0.27296702  0.70599368  0.99427416     0.11000
C1159       C  0.20565499  0.74292256  0.86506963    -0.15100
C1160       C  0.21477990  0.77508598  0.86218054     0.07000
C1161       C  0.19193045  0.78307987  0.85261736    -0.15100
C1162       C  0.16034874  0.75975681  0.84952242    -0.15100
C1163       C  0.15073689  0.72801037  0.85670843     0.07000
C1164       C  0.17382219  0.71958716  0.86275729    -0.15100
H1165       H  0.22271031  0.73597258  0.87253755     0.11000
H1166       H  0.19812135  0.80751746  0.85001888     0.11000
H1167       H  0.14292469  0.76695167  0.84569013     0.11000
H1168       H  0.16705232  0.69552870  0.86958840     0.11000
C1169       C  0.24429558  0.89045235  0.84391269    -0.15100
C1170       C  0.27576734  0.91281320  0.85192083     0.07000
C1171       C  0.28321851  0.94383538  0.85923460    -0.15100
C1172       C  0.25923245  0.95131682  0.86299790    -0.15100
C1173       C  0.22737312  0.92769708  0.86032468     0.07000
C1174       C  0.22025283  0.89761378  0.84870675    -0.15100
H1175       H  0.23785326  0.86617543  0.83892010     0.11000
H1176       H  0.30704940  0.96129975  0.86652720     0.11000
H1177       H  0.26555527  0.97485161  0.87172292     0.11000
H1178       H  0.19605158  0.87902060  0.84599476     0.11000
C1179       C  0.37301897  0.95347328  0.98912216    -0.15100
C1180       C  0.34444008  0.92477311  0.99039898     0.07000
C1181       C  0.32713877  0.91686792  0.02284182    -0.15100
C1182       C  0.33724191  0.93776512  0.05242554    -0.15100
C1183       C  0.36508135  0.96711905  0.05060159     0.07000
C1184       C  0.38324279  0.97434361  0.01884717    -0.15100
H1185       H  0.38713177  0.96021733  0.96471724     0.11000
H1186       H  0.30511786  0.89497323  0.02493703     0.11000
H1187       H  0.32243715  0.93144444  0.07623402     0.11000
H1188       H  0.40457707  0.99682532  0.01623317     0.11000
C1189       C  0.31691784  0.88998314  0.51759400    -0.15100
C1190       C  0.33654926  0.90262776  0.48724301     0.07000
C1191       C  0.36650037  0.90530144  0.48861027    -0.15100
C1192       C  0.37593233  0.89423482  0.51874807    -0.15100
C1193       C  0.35579860  0.88049089  0.54853330     0.07000
C1194       C  0.32642731  0.87916996  0.54780394    -0.15100
H1195       H  0.29387109  0.88783763  0.51771513     0.11000
H1196       H  0.38231915  0.91500715  0.46578040     0.11000
H1197       H  0.39844322  0.89519568  0.51799778     0.11000
H1198       H  0.31009127  0.86847871  0.57001295     0.11000
C1199       C  0.24631203  0.71733235  0.47318759    -0.15100
C1200       C  0.22491427  0.72834968  0.47307722     0.07000
C1201       C  0.23150528  0.75549404  0.49276743    -0.15100
C1202       C  0.25920931  0.77149183  0.51233759    -0.15100
C1203       C  0.28050104  0.76034870  0.51274370     0.07000
C1204       C  0.27403133  0.73331104  0.49288227    -0.15100
H1205       H  0.24190397  0.69675172  0.45764246     0.11000
H1206       H  0.21546746  0.76467157  0.49268710     0.11000
H1207       H  0.26352703  0.79205019  0.52787312     0.11000
H1208       H  0.29005337  0.72411766  0.49316033     0.11000
C1209       C  0.25010182  0.69586816  0.62808471    -0.15100
C1210       C  0.28201334  0.70451641  0.63192294     0.07000
C1211       C  0.28940480  0.68199274  0.64473497    -0.15100
C1212       C  0.26556570  0.65080316  0.64993489    -0.15100
C1213       C  0.23407353  0.64133844  0.64133058     0.07000
C1214       C  0.22636740  0.66448847  0.63242623    -0.15100
H1215       H  0.24359963  0.71270621  0.61824498     0.11000
H1216       H  0.31366258  0.68794981  0.64829547     0.11000
H1217       H  0.27219692  0.63323397  0.65602094     0.11000
H1218       H  0.20255890  0.65777510  0.62445746     0.11000
C1219       C  0.37942233  0.86070036  0.72861181    -0.15100
C1220       C  0.35421340  0.83783306  0.70777771     0.07000
C1221       C  0.32409537  0.82257827  0.72324788    -0.15100
C1222       C  0.31932775  0.82889718  0.75872280    -0.15100
C1223       C  0.34444871  0.85069523  0.78021488     0.07000
C1224       C  0.37455605  0.86710625  0.76468076    -0.15100
H1225       H  0.40283997  0.87305591  0.71735266     0.11000
H1226       H  0.30390227  0.80526486  0.70802602     0.11000
H1227       H  0.29579019  0.81606131  0.76966945     0.11000
H1228       H  0.39438991  0.88390798  0.78076582     0.11000
C1229       C  0.39924284  0.73482333  0.65013545    -0.15100
C1230       C  0.42079629  0.76610658  0.64049485     0.07000
C1231       C  0.45147248  0.77369873  0.63145686    -0.15100
C1232       C  0.45930304  0.74990652  0.62803989    -0.15100
C1233       C  0.43635155  0.71804907  0.63281538     0.07000
C1234       C  0.40672435  0.71091774  0.64572685    -0.15100
H1235       H  0.37515998  0.72820206  0.65620372     0.11000
H1236       H  0.46818217  0.79730224  0.62263936     0.11000
H1237       H  0.48238921  0.75617134  0.61802535     0.11000
H1238       H  0.38865363  0.68669820  0.64989317     0.11000
C1239       C  0.44480687  0.82503881  0.43990459    -0.15100
C1240       C  0.47450550  0.85237916  0.44299960     0.07000
C1241       C  0.48178862  0.86979460  0.47549847    -0.15100
C1242       C  0.46054170  0.85944563  0.50458153    -0.15100
C1243       C  0.43136036  0.83144234  0.50198579     0.07000
C1244       C  0.42349431  0.81479470  0.46890558    -0.15100
H1245       H  0.43844780  0.81079734  0.41546875     0.11000
H1246       H  0.00453798  0.89065608  0.47913639     0.11000
H1247       H  0.46736277  0.87303193  0.52953287     0.11000
H1248       H  0.40125697  0.79323083  0.46581227     0.11000
O1249       O  0.83294137  0.23956869  0.60733462    -0.83600
C1250       C  0.86254676  0.36266480  0.57685163     0.95800
O1251       O  0.84125676  0.34574934  0.59905481    -0.72700
O1252       O  0.81126015  0.29674732  0.55762457    -0.76300
Al1253     Al  0.82478552  0.30159773  0.60601637     1.49000
C1254       C  0.80664081  0.27374070  0.53823425     0.91000
O1255       O  0.88270794  0.29560020  0.53097132    -0.82500
O1256       O  0.90851051  0.30832185  0.63533775    -0.76100
Al1257     Al  0.85814963  0.26946627  0.57051842     1.90100
O1258       O  0.91943037  0.33251716  0.56469698    -0.75100
O1259       O  0.88280334  0.34484473  0.65183715    -0.75000
O1260       O  0.88788606  0.36172771  0.57690260    -0.80600
O1261       O  0.83436934  0.30621649  0.65555599    -0.78800
O1262       O  0.85992143  0.30162801  0.59465519    -1.15000
O1263       O  0.80029371  0.25740886  0.61507010    -0.74200
C1264       C  0.80674373  0.23558265  0.61824554     0.96500
C1265       C  0.90992721  0.31931212  0.53401327     0.92900
Al1266     Al  0.89690071  0.33451489  0.60660695     1.55600
O1267       O  0.82214568  0.25994794  0.54307410    -0.78800
C1268       C  0.85777289  0.32923100  0.66998881     0.97100
C1269       C  0.90733537  0.28359608  0.62259346     0.92000
O1270       O  0.89352876  0.27170059  0.59301911    -0.84100
O1271       O  0.75122299  0.32606588  0.88564775    -0.83600
C1272       C  0.87400870  0.35587674  0.91254632     0.95800
O1273       O  0.85769910  0.33559821  0.88871656    -0.72700
O1274       O  0.81006020  0.30451998  0.93070658    -0.76300
Al1275     Al  0.81327215  0.31858348  0.88300908     1.49000
C1276       C  0.78879835  0.30100616  0.95214619     0.91000
O1277       O  0.80876563  0.37643120  0.96057015    -0.82500
O1278       O  0.81931757  0.40249651  0.85680049    -0.76100
Al1279     Al  0.78205673  0.35162986  0.92147914     1.90100
O1280       O  0.84496493  0.41347543  0.92711640    -0.75100
O1281       O  0.85564220  0.37712757  0.83843499    -0.75000
O1282       O  0.87360510  0.38154518  0.91331093    -0.80600
O1283       O  0.81620446  0.32899346  0.83377133    -0.78800
O1284       O  0.81351975  0.35367233  0.89613100    -1.15000
O1285       O  0.76866678  0.29343321  0.87541416    -0.74200
C1286       C  0.74667840  0.29975855  0.87417714     0.96500
C1287       C  0.83223675  0.40373119  0.95781942     0.92900
Al1288     Al  0.84612193  0.39091463  0.88447818     1.55600
O1289       O  0.77449790  0.31617840  0.94847640    -0.78800
C1290       C  0.83858787  0.35282758  0.81936642     0.97100
C1291       C  0.79436609  0.40050006  0.86975721     0.92000
O1292       O  0.78312400  0.38666562  0.89939485    -0.84100
O1293       O  0.75700788  0.07665955  0.60924188    -0.83600
C1294       C  0.63345522  0.48641865  0.58390467     0.95800
O1295       O  0.64948087  0.48186398  0.60770954    -0.72700
O1296       O  0.69732138  0.99636682  0.56618579    -0.76300
Al1297     Al  0.69409825  0.00827559  0.61356248     1.49000
C1298       C  0.71823211  0.01367938  0.54409877     0.91000
O1299       O  0.69988740  0.07086252  0.53440613    -0.82500
O1300       O  0.69038831  0.08771305  0.63794846    -0.76100
Al1301     Al  0.72639356  0.07199518  0.57359647     1.90100
O1302       O  0.66461262  0.07333139  0.56793396    -0.75100
O1303       O  0.65259300  0.02649843  0.65694338    -0.75000
O1304       O  0.63484675  0.01294036  0.58258896    -0.80600
O1305       O  0.69124527  0.01657706  0.66265442    -0.78800
O1306       O  0.69474942  0.04346912  0.59943090    -1.15000
O1307       O  0.73859459  0.02676983  0.62147124    -0.74200
C1308       C  0.76094118  0.05484088  0.62189627     0.96500
C1309       C  0.67711753  0.07589236  0.53719952     0.92900
Al1310     Al  0.66286173  0.04949472  0.61079264     1.55600
O1311       O  0.73265195  0.04314565  0.54703755    -0.78800
C1312       C  0.66916569  0.01894549  0.67652503     0.97100
C1313       C  0.71554800  0.11005876  0.62465025     0.92000
O1314       O  0.72669517  0.10668337  0.59535822    -0.84100
O1315       O  0.67637414  0.41118831  0.88518459    -0.83600
C1316       C  0.64559515  0.00359210  0.91854298     0.95800
O1317       O  0.66693061  0.00819890  0.89635198    -0.72700
O1318       O  0.69736821  0.48896700  0.93704965    -0.76300
Al1319     Al  0.68370999  0.48090682  0.88861164     1.49000
C1320       C  0.70284831  0.47065287  0.95556023     0.91000
O1321       O  0.62738080  0.41613115  0.96327525    -0.82500
O1322       O  0.59920588  0.40324744  0.86005458    -0.76100
Al1323     Al  0.65146744  0.41509245  0.92297853     1.90100
O1324       O  0.58996293  0.41676623  0.93113917    -0.75100
O1325       O  0.62495961  0.46563324  0.84352201    -0.75000
O1326       O  0.62054293  0.47720155  0.91868251    -0.80600
O1327       O  0.67387275  0.47666232  0.83924173    -0.78800
O1328       O  0.64886339  0.44546854  0.89975862    -1.15000
O1329       O  0.70869243  0.46177949  0.87854735    -0.74200
C1330       C  0.70248132  0.43366682  0.87451802     0.96500
C1331       C  0.60021676  0.41300863  0.96131764     0.92900
Al1332     Al  0.61150672  0.44115675  0.88882609     1.55600
O1333       O  0.68786438  0.44147524  0.95008455    -0.78800
C1334       C  0.65012531  0.47604212  0.82532159     0.97100
C1335       C  0.60063737  0.37966930  0.87236480     0.92000
O1336       O  0.61595552  0.38186825  0.90081391    -0.84100
O1337       O  0.91991009  0.16688564  0.60819171    -0.83600
C1338       C  0.51054651  0.13341667  0.57913201     0.95800
O1339       O  0.51562864  0.15537424  0.60087353    -0.72700
O1340       O  0.99847424  0.18743205  0.55927324    -0.76300
Al1341     Al  0.98913021  0.17323112  0.60763838     1.49000
C1342       C  0.98044172  0.19262958  0.53972289     0.91000
O1343       O  0.92585136  0.11726285  0.53143805    -0.82500
O1344       O  0.91070237  0.09024757  0.63526184    -0.76100
Al1345     Al  0.92414893  0.14159242  0.57111239     1.90100
O1346       O  0.92378837  0.07902969  0.56441878    -0.75100
O1347       O  0.97256207  0.11416730  0.65265703    -0.75000
O1348       O  0.98392105  0.10868821  0.57856845    -0.80600
O1349       O  0.98380033  0.16322723  0.65691180    -0.78800
O1350       O  0.95368310  0.13861501  0.59560307    -1.15000
O1351       O  0.97037445  0.19876256  0.61679755    -0.74200
C1352       C  0.94232522  0.19289720  0.61949017     0.96500
C1353       C  0.92172618  0.08969287  0.53370894     0.92900
Al1354     Al  0.94821515  0.10085311  0.60721012     1.55600
O1355       O  0.95126842  0.17772054  0.54451369    -0.78800
C1356       C  0.98326648  0.13951531  0.67078725     0.97100
C1357       C  0.88769011  0.09217177  0.62205513     0.92000
O1358       O  0.89023919  0.10627216  0.59253806    -0.84100
O1359       O  0.58377602  0.24905074  0.88580904    -0.83600
C1360       C  0.99598341  0.12456877  0.91016724     0.95800
O1361       O  0.99094917  0.14019816  0.88632129    -0.72700
O1362       O  0.50358813  0.18797070  0.92797685    -0.76300
Al1363     Al  0.51630278  0.18498375  0.88082803     1.49000
C1364       C  0.52029708  0.20946767  0.95004850     0.91000
O1365       O  0.57808635  0.19269238  0.96143673    -0.82500
O1366       O  0.59749724  0.18355093  0.85881855    -0.76100
Al1367     Al  0.57940627  0.21889838  0.92194344     1.90100
O1368       O  0.58243389  0.15792425  0.92864330    -0.75100
O1369       O  0.53678928  0.14458077  0.83825688    -0.75000
O1370       O  0.52274724  0.12673007  0.91195223    -0.80600
O1371       O  0.52523444  0.18218118  0.83207235    -0.78800
O1372       O  0.55182248  0.18672071  0.89572846    -1.15000
O1373       O  0.53381545  0.22954684  0.87304633    -0.74200
C1374       C  0.56164204  0.25236980  0.87290468     0.96500
C1375       C  0.58375924  0.17025606  0.95929315     0.92900
Al1376     Al  0.55914307  0.15541850  0.88489949     1.55600
O1377       O  0.54972162  0.22463625  0.94740279    -0.78800
C1378       C  0.52844407  0.16041080  0.81850625     0.97100
C1379       C  0.61928981  0.20895026  0.87266488     0.92000
O1380       O  0.61498292  0.22003700  0.90155203    -0.84100
O1381       O  0.61049429  0.21797288  0.39766312    -0.83600
C1382       C  0.63804352  0.12511183  0.41550235     0.95800
O1383       O  0.61330183  0.12721965  0.41636418    -0.72700
O1384       O  0.58393669  0.15885078  0.42734859    -0.76300
Al1385     Al  0.60453666  0.15412459  0.38564685     1.49000
C1386       C  0.59522564  0.17157066  0.45774393     0.91000
O1387       O  0.68268937  0.22848079  0.44434227    -0.82500
O1388       O  0.70168242  0.22846887  0.37080805    -0.76100
Al1389     Al  0.64623096  0.21948579  0.41875783     1.90100
O1390       O  0.69261493  0.19107614  0.42953151    -0.75100
O1391       O  0.66430451  0.17806439  0.33293991    -0.75000
O1392       O  0.65863534  0.14040951  0.39175307    -0.80600
O1393       O  0.61576047  0.14058578  0.34141807    -0.78800
O1394       O  0.64255507  0.18633883  0.39520091    -1.15000
O1395       O  0.59394184  0.18083512  0.35582658    -0.74200
C1396       C  0.59676135  0.20655183  0.36787461     0.96500
C1397       C  0.69813061  0.21458134  0.44852049     0.92900
Al1398     Al  0.67645051  0.18455971  0.38209684     1.55600
O1399       O  0.62289982  0.19461111  0.45957948    -0.78800
C1400       C  0.63941135  0.15504590  0.32112922     0.97100
C1401       C  0.69618865  0.25104088  0.36886049     0.92000
O1402       O  0.67063276  0.24798805  0.38078129    -0.84100
O1403       O  0.74084088  0.12254073  0.10859444    -0.83600
C1404       C  0.64059661  0.14139819  0.07950379     0.95800
O1405       O  0.63673420  0.11575130  0.09349451    -0.72700
O1406       O  0.66329264  0.08687950  0.06440536    -0.76300
Al1407     Al  0.66751290  0.10394011  0.11144598     1.49000
C1408       C  0.68245843  0.09091050  0.03980873     0.91000
O1409       O  0.72939085  0.17179564  0.04059882    -0.82500
O1410       O  0.73546036  0.19057288  0.14625574    -0.76100
Al1411     Al  0.73302768  0.14661058  0.07652592     1.90100
O1412       O  0.72485611  0.20333458  0.07866966    -0.75100
O1413       O  0.67358593  0.16061212  0.15574709    -0.75000
O1414       O  0.66522838  0.16724675  0.08537038    -0.80600
O1415       O  0.66447153  0.11283235  0.16176404    -0.78800
O1416       O  0.69995319  0.14207176  0.10134616    -1.15000
O1417       O  0.69429799  0.08685600  0.12843902    -0.74200
C1418       C  0.72393435  0.09812383  0.12647433     0.96500
C1419       C  0.73230029  0.19804545  0.04811209     0.92900
Al1420     Al  0.69951294  0.17694961  0.11542581     1.55600
O1421       O  0.71069728  0.11226785  0.04312051    -0.78800
C1422       C  0.66364845  0.13623213  0.17436618     0.97100
C1423       C  0.76163689  0.19624009  0.13331216     0.92000
O1424       O  0.76302099  0.18240357  0.10476831    -0.84100
O1425       O  0.76751207  0.38579426  0.38473233    -0.83600
C1426       C  0.86746977  0.00471807  0.41362815     0.95800
O1427       O  0.87138348  0.48297448  0.39982076    -0.72700
O1428       O  0.84506872  0.42788749  0.42976175    -0.76300
Al1429     Al  0.84075068  0.44052019  0.38236738     1.49000
C1430       C  0.82574994  0.41244177  0.45414485     0.91000
O1431       O  0.77834489  0.44566706  0.45323135    -0.82500
O1432       O  0.77180132  0.45909428  0.34790865    -0.76100
Al1433     Al  0.77499652  0.41725662  0.41704960     1.90100
O1434       O  0.78298609  0.48216703  0.41571888    -0.75100
O1435       O  0.83354663  0.49048379  0.33771046    -0.75000
O1436       O  0.84268905  0.00580672  0.40799410    -0.80600
O1437       O  0.84381146  0.45251164  0.33190215    -0.78800
O1438       O  0.80801395  0.44600112  0.39235120    -1.15000
O1439       O  0.81430253  0.39670661  0.36564535    -0.74200
C1440       C  0.78467148  0.37838069  0.36721626     0.96500
C1441       C  0.77523691  0.46897059  0.44607006     0.92900
Al1442     Al  0.80809380  0.48120961  0.37841444     1.55600
O1443       O  0.79741203  0.40515934  0.45035202    -0.78800
C1444       C  0.84403435  0.47647158  0.31918051     0.97100
C1445       C  0.74574589  0.43817829  0.36063625     0.92000
O1446       O  0.74471716  0.42288325  0.38900390    -0.84100
O1447       O  0.89905480  0.11267090  0.09785865    -0.83600
C1448       C  0.87178495  0.49178508  0.07862055     0.95800
O1449       O  0.89625745  0.01862618  0.07713380    -0.72700
O1450       O  0.92559769  0.07930213  0.06536664    -0.76300
Al1451     Al  0.90523885  0.05418143  0.10762032     1.49000
C1452       C  0.91420977  0.08195402  0.03547841     0.91000
O1453       O  0.82694489  0.05135976  0.04960591    -0.82500
O1454       O  0.80737665  0.03139623  0.12171153    -0.76100
Al1455     Al  0.86344899  0.07877529  0.07581685     1.90100
O1456       O  0.81813913  0.00409600  0.06317675    -0.75100
O1457       O  0.84500145  0.01880707  0.16023770    -0.75000
O1458       O  0.85122630  0.48677790  0.10225761    -0.80600
O1459       O  0.89361675  0.02946000  0.15224873    -0.78800
O1460       O  0.86729154  0.04892589  0.09841226    -1.15000
O1461       O  0.91668166  0.09121669  0.13746701    -0.74200
C1462       C  0.91389294  0.11440704  0.12667249     0.96500
C1463       C  0.81213741  0.02206627  0.04466117     0.92900
Al1464     Al  0.83331121  0.01319649  0.11102211     1.55600
O1465       O  0.88688090  0.07834794  0.03457570    -0.78800
C1466       C  0.86982176  0.02056301  0.17238950     0.97100
C1467       C  0.81294518  0.05938739  0.12486383     0.92000
O1468       O  0.83888219  0.08203539  0.11420283    -0.84100
O1469       O  0.89229166  0.26183966  0.11198485    -0.83600
C1470       C  0.51284695  0.35755258  0.07871106     0.95800
O1471       O  0.99173155  0.36284583  0.09136791    -0.72700
O1472       O  0.93617499  0.33725949  0.06225732    -0.76300
Al1473     Al  0.94939911  0.33429203  0.10994837     1.49000
C1474       C  0.91927896  0.31723149  0.03890651     0.91000
O1475       O  0.94879870  0.26633579  0.04197994    -0.82500
O1476       O  0.96473965  0.26364161  0.14721351    -0.76100
Al1477     Al  0.92217338  0.26630688  0.07866356     1.90100
O1478       O  0.98625584  0.27210753  0.07893667    -0.75100
O1479       O  0.99806762  0.32545219  0.15584826    -0.75000
O1480       O  0.51261545  0.33222502  0.08534711    -0.80600
O1481       O  0.96236993  0.33900649  0.16016271    -0.78800
O1482       O  0.95270158  0.29990099  0.10159904    -1.15000
O1483       O  0.90615956  0.31034307  0.12813264    -0.74200
C1484       C  0.88686752  0.28086645  0.12881094     0.96500
C1485       C  0.97235195  0.26352776  0.04890868     0.92900
Al1486     Al  0.98723678  0.29876009  0.11569027     1.55600
O1487       O  0.91044273  0.28859876  0.04431768    -0.78800
C1488       C  0.98547131  0.33794100  0.17347373     0.97100
C1489       C  0.94337351  0.23741064  0.13521527     0.92000
O1490       O  0.92711773  0.23603130  0.10758119    -0.84100
O1491       O  0.62011054  0.38805941  0.39504465    -0.83600
C1492       C  0.99929796  0.35942180  0.41528902     0.95800
O1493       O  0.52600339  0.38407691  0.41735568    -0.72700
O1494       O  0.58679500  0.41420254  0.42891506    -0.76300
Al1495     Al  0.56149941  0.39412033  0.38666609     1.49000
C1496       C  0.58985532  0.40285762  0.45850765     0.91000
O1497       O  0.55969344  0.31528918  0.44228800    -0.82500
O1498       O  0.53987410  0.29718185  0.36755547    -0.76100
Al1499     Al  0.58669617  0.35214507  0.41674478     1.90100
O1500       O  0.51216128  0.30473445  0.42725263    -0.75100
O1501       O  0.52658025  0.33541283  0.33157727    -0.75000
O1502       O  0.99439128  0.33909687  0.39114467    -0.80600
O1503       O  0.53665393  0.38356584  0.34221798    -0.78800
O1504       O  0.55666051  0.35598721  0.39434211    -1.15000
O1505       O  0.59844426  0.40647379  0.35666189    -0.74200
C1506       C  0.62167469  0.40350347  0.36688079     0.96500
C1507       C  0.53043386  0.29938719  0.44619541     0.92900
Al1508     Al  0.52123176  0.32206369  0.38031065     1.55600
O1509       O  0.58637360  0.37548157  0.45883866    -0.78800
C1510       C  0.52820089  0.36054341  0.32079129     0.97100
C1511       C  0.56762506  0.30212361  0.36568645     0.92000
O1512       O  0.59022858  0.32757346  0.37795864    -0.84100
C1513       C  0.98085556  0.35507148  0.23700975    -0.15100
C1514       C  0.99833706  0.35021868  0.21021021     0.07000
C1515       C  0.52786551  0.35399757  0.21971490    -0.15100
C1516       C  0.53845033  0.35967046  0.25558327    -0.15100
C1517       C  0.52013249  0.36234449  0.28270653     0.07000
C1518       C  0.99174932  0.36111071  0.27320693    -0.15100
H1519       H  0.95808843  0.35233932  0.23047341     0.11000
H1520       H  0.54220903  0.35092641  0.19967610     0.11000
H1521       H  0.56031173  0.36042062  0.26251029     0.11000
H1522       H  0.97713964  0.36273261  0.29407313     0.11000
C1523       C  0.90378293  0.15204496  0.15925320    -0.15100
C1524       C  0.92617949  0.14432612  0.14677831     0.07000
C1525       C  0.95675436  0.16882220  0.13988660    -0.15100
C1526       C  0.96370636  0.20031059  0.14153724    -0.15100
C1527       C  0.93998474  0.20760472  0.14923205     0.07000
C1528       C  0.91041821  0.18334393  0.15982884    -0.15100
H1529       H  0.87980358  0.13357913  0.16375585     0.11000
H1530       H  0.97409748  0.16359206  0.12895280     0.11000
H1531       H  0.98646598  0.21860048  0.13230811     0.11000
H1532       H  0.89160106  0.18828589  0.16510351     0.11000
C1533       C  0.66062089  0.39437015  0.33637969    -0.15100
C1534       C  0.65155516  0.41631302  0.34688184     0.07000
C1535       C  0.67500450  0.44780139  0.35194519    -0.15100
C1536       C  0.70691077  0.45621137  0.35093592    -0.15100
C1537       C  0.71558549  0.43310399  0.34556518     0.07000
C1538       C  0.69226694  0.40251830  0.33638441    -0.15100
H1539       H  0.64302949  0.36978681  0.33316205     0.11000
H1540       H  0.66875784  0.46495181  0.36113851     0.11000
H1541       H  0.72448539  0.47982090  0.35891900     0.11000
H1542       H  0.69826924  0.38419162  0.33285947     0.11000
C1543       C  0.86127091  0.47178251  0.25567787    -0.15100
C1544       C  0.85581520  0.48904352  0.28232650     0.07000
C1545       C  0.85945091  0.51857078  0.27289175    -0.15100
C1546       C  0.86619147  0.52962902  0.23737519    -0.15100
C1547       C  0.87013697  0.01184537  0.21048813     0.07000
C1548       C  0.86839890  0.98317649  0.21982559    -0.15100
H1549       H  0.85858632  0.94899716  0.26209625     0.11000
H1550       H  0.85579000  0.53274706  0.29271242     0.11000
H1551       H  0.86701276  0.55155154  0.23050125     0.11000
H1552       H  0.87071962  0.96884528  0.19902997     0.11000
C1553       C  0.80165830  0.25279258  0.13673836    -0.15100
C1554       C  0.79141542  0.22173961  0.14808550     0.07000
C1555       C  0.81322937  0.21445509  0.16321161    -0.15100
C1556       C  0.84520037  0.23685683  0.16325687    -0.15100
C1557       C  0.85598287  0.26650751  0.14689291     0.07000
C1558       C  0.83384549  0.27512461  0.13609055    -0.15100
H1559       H  0.78518799  0.25864133  0.12417783     0.11000
H1560       H  0.80595050  0.19056247  0.17144877     0.11000
H1561       H  0.86182548  0.22950122  0.17143031     0.11000
H1562       H  0.84143387  0.29744160  0.12267348     0.11000
C1563       C  0.75590154  0.04341843  0.12986727    -0.15100
C1564       C  0.78766115  0.06533093  0.13750749     0.07000
C1565       C  0.79506540  0.09469239  0.15188343    -0.15100
C1566       C  0.77188169  0.10320785  0.15481412    -0.15100
C1567       C  0.74103232  0.08304610  0.14214652     0.07000
C1568       C  0.73275494  0.05230525  0.13189045    -0.15100
H1569       H  0.74949387  0.02053819  0.11869479     0.11000
H1570       H  0.81918003  0.11192912  0.15832532     0.11000
H1571       H  0.77899298  0.12717124  0.16263983     0.11000
H1572       H  0.70945804  0.03651066  0.12130536     0.11000
C1573       C  0.71394651  0.30408615  0.34151382    -0.15100
C1574       C  0.72135607  0.28219053  0.35621261     0.07000
C1575       C  0.75306245  0.29198572  0.36422737    -0.15100
C1576       C  0.77614802  0.32393697  0.36222568    -0.15100
C1577       C  0.76785777  0.34633994  0.35153656     0.07000
C1578       C  0.73710049  0.33569841  0.33848598    -0.15100
H1579       H  0.68987460  0.29723479  0.33480154     0.11000
H1580       H  0.75943121  0.27553816  0.37570827     0.11000
H1581       H  0.79936033  0.33142376  0.37315023     0.11000
H1582       H  0.73000542  0.35252472  0.33033171     0.11000
C1583       C  0.64235223  0.11966632  0.27437469    -0.15100
C1584       C  0.63865081  0.14553192  0.28324558     0.07000
C1585       C  0.63991512  0.16585673  0.25585605    -0.15100
C1586       C  0.64617801  0.16137186  0.22020793    -0.15100
C1587       C  0.65188384  0.13671519  0.21122010     0.07000
C1588       C  0.64890686  0.11521191  0.23840418    -0.15100
H1589       H  0.64200789  0.10410768  0.29554712     0.11000
H1590       H  0.63747494  0.18610171  0.26239141     0.11000
H1591       H  0.64792733  0.17819644  0.19989176     0.11000
H1592       H  0.65325697  0.09610313  0.23228493     0.11000
C1593       C  0.60264833  0.28184693  0.34293452    -0.15100
C1594       C  0.57274740  0.27614174  0.35292738     0.07000
C1595       C  0.54847324  0.24459505  0.35649164    -0.15100
C1596       C  0.55496190  0.21972218  0.35498426    -0.15100
C1597       C  0.58564886  0.22583086  0.34890049     0.07000
C1598       C  0.60881814  0.25686897  0.34031515    -0.15100
H1599       H  0.62180604  0.30573564  0.33983713     0.11000
H1600       H  0.52512056  0.23932245  0.36431657     0.11000
H1601       H  0.53688573  0.19635823  0.36286487     0.11000
H1602       H  0.63284379  0.26234804  0.33630760     0.11000
C1603       C  0.59931254  0.17561901  0.02551405    -0.15100
C1604       C  0.59310571  0.15906540  0.99248872     0.07000
C1605       C  0.59753939  0.13274251  0.99116366    -0.15100
C1606       C  0.60967984  0.12445361  0.02136279    -0.15100
C1607       C  0.61786182  0.14241987  0.05345608     0.07000
C1608       C  0.61180738  0.16760382  0.05539888    -0.15100
H1609       H  0.59609038  0.19587507  0.02771360     0.11000
H1610       H  0.59287993  0.11932581  0.96626184     0.11000
H1611       H  0.61503036  0.10560037  0.01860379     0.11000
H1612       H  0.61856700  0.18233767  0.07946030     0.11000
C1613       C  0.94317804  0.10702337  0.93846659    -0.15100
C1614       C  0.97220316  0.10766405  0.93903850     0.07000
C1615       C  0.98072410  0.09759195  0.97078578    -0.15100
C1616       C  0.96162339  0.08876538  0.00168970    -0.15100
C1617       C  0.93334691  0.08955806  0.00170918     0.07000
C1618       C  0.92392345  0.09793812  0.96934739    -0.15100
H1619       H  0.93599498  0.11497720  0.91467364     0.11000
H1620       H  0.50303329  0.09815503  0.97248560     0.11000
H1621       H  0.96944275  0.08202496  0.02595629     0.11000
H1622       H  0.90219220  0.09856516  0.96827382     0.11000
C1623       C  0.47510168  0.21358910  0.97328145    -0.15100
C1624       C  0.50594147  0.21933421  0.97761742     0.07000
C1625       C  0.52499512  0.23888050  0.00568586    -0.15100
C1626       C  0.51398892  0.25366710  0.02820526    -0.15100
C1627       C  0.98362066  0.24894964  0.02327400     0.07000
C1628       C  0.96396599  0.22852579  0.99606857    -0.15100
H1629       H  0.96018758  0.19870066  0.95149347     0.11000
H1630       H  0.54885579  0.24358596  0.00952863     0.11000
H1631       H  0.52946276  0.26910739  0.04930790     0.11000
H1632       H  0.94020048  0.22414528  0.99252520     0.11000
C1633       C  0.49188113  0.11761121  0.72984293    -0.15100
C1634       C  0.99709016  0.14321391  0.70770417     0.07000
C1635       C  0.01615862  0.17390643  0.72114604    -0.15100
C1636       C  0.02792078  0.17903794  0.75641651    -0.15100
C1637       C  0.52120738  0.15370774  0.77942455     0.07000
C1638       C  0.50389662  0.12285568  0.76566084    -0.15100
H1639       H  0.47764769  0.09373517  0.72001800     0.11000
H1640       H  0.02149609  0.19427326  0.70461856     0.11000
H1641       H  0.04143549  0.20303099  0.76624088     0.11000
H1642       H  0.49825314  0.10293178  0.78311505     0.11000
C1643       C  0.56476832  0.16575015  0.55388730    -0.15100
C1644       C  0.53468051  0.13892484  0.55149145     0.07000
C1645       C  0.52596366  0.12141876  0.51905246    -0.15100
C1646       C  0.54602931  0.13163188  0.48901811    -0.15100
C1647       C  0.57537083  0.15948168  0.49074896     0.07000
C1648       C  0.58493609  0.17583714  0.52391872    -0.15100
H1649       H  0.57213100  0.17992037  0.57840545     0.11000
H1650       H  0.50283477  0.10094658  0.51606545     0.11000
H1651       H  0.53807867  0.11820163  0.46399708     0.11000
H1652       H  0.60746807  0.19716350  0.52628468     0.11000
C1653       C  0.97307396  0.22709425  0.49642517    -0.15100
C1654       C  0.99326735  0.21834846  0.51351248     0.07000
C1655       C  0.52575817  0.23665250  0.50872416    -0.15100
C1656       C  0.53791312  0.26366210  0.48759044    -0.15100
C1657       C  0.51771017  0.27265538  0.47099553     0.07000
C1658       C  0.48521477  0.25409907  0.47538793    -0.15100
H1659       H  0.94787065  0.21349882  0.49998417     0.11000
H1660       H  0.54176296  0.23045024  0.52181488     0.11000
H1661       H  0.56311213  0.27733385  0.48403119     0.11000
H1662       H  0.96917441  0.26034072  0.46247135     0.11000
C1663       C  0.90785312  0.07990103  0.46713599    -0.15100
C1664       C  0.91342315  0.06942763  0.50051370     0.07000
C1665       C  0.90958196  0.03893000  0.50203333    -0.15100
C1666       C  0.89821052  0.01869435  0.47172276    -0.15100
C1667       C  0.89027294  0.02847150  0.43937736     0.07000
C1668       C  0.89618896  0.05960989  0.43711761    -0.15100
H1669       H  0.91085191  0.10327160  0.46472730     0.11000
H1670       H  0.91394431  0.03016042  0.52717177     0.11000
H1671       H  0.89305060  0.99457238  0.47461406     0.11000
H1672       H  0.88970957  0.06757654  0.41276311     0.11000
C1673       C  0.59771103  0.30588225  0.84730738    -0.15100
C1674       C  0.56800263  0.28390634  0.86048801     0.07000
C1675       C  0.54602990  0.29389234  0.86693717    -0.15100
C1676       C  0.55500683  0.32595138  0.86468944    -0.15100
C1677       C  0.58581775  0.34836155  0.85505288     0.07000
C1678       C  0.60632108  0.33764785  0.84411019    -0.15100
H1679       H  0.61507398  0.29892114  0.84197734     0.11000
H1680       H  0.52297144  0.27748470  0.87735371     0.11000
H1681       H  0.53909880  0.33355591  0.87455842     0.11000
H1682       H  0.63050834  0.35448311  0.83764207     0.11000
C1683       C  0.63245550  0.02152543  0.97689862    -0.15100
C1684       C  0.65204603  0.02819462  0.94653261     0.07000
C1685       C  0.68088132  0.05672665  0.94630265    -0.15100
C1686       C  0.69051390  0.07727445  0.97617683    -0.15100
C1687       C  0.67150433  0.07004124  0.00709673     0.07000
C1688       C  0.64199494  0.04226059  0.00670261    -0.15100
H1689       H  0.61038970  0.99961001  0.97836656     0.11000
H1690       H  0.69676856  0.06260843  0.92357738     0.11000
H1691       H  0.71317815  0.09856213  0.97533820     0.11000
H1692       H  0.62666806  0.03595464  0.03003541     0.11000
C1693       C  0.73875779  0.46353961  0.99682105    -0.15100
C1694       C  0.72931525  0.48353028  0.98070289     0.07000
C1695       C  0.74790022  0.01617276  0.98459425    -0.15100
C1696       C  0.77580609  0.02873681  0.00397961    -0.15100
C1697       C  0.78533046  0.00880577  0.02002187     0.07000
C1698       C  0.76668010  0.47612560  0.01633062    -0.15100
H1699       H  0.72494707  0.43822916  0.99372444     0.11000
H1700       H  0.74122838  0.03203727  0.97206923     0.11000
H1701       H  0.78959755  0.05406051  0.00693938     0.11000
H1702       H  0.77340471  0.46031983  0.02890850     0.11000
C1703       C  0.58857064  0.39502683  0.02645065    -0.15100
C1704       C  0.57969867  0.40390072  0.99409207     0.07000
C1705       C  0.55028165  0.40249860  0.99286336    -0.15100
C1706       C  0.52947866  0.39055263  0.02235474    -0.15100
C1707       C  0.53756999  0.37954555  0.05355586     0.07000
C1708       C  0.56767230  0.38276680  0.05563934    -0.15100
H1709       H  0.61105477  0.39600824  0.02856445     0.11000
H1710       H  0.54276704  0.40940267  0.96848932     0.11000
H1711       H  0.50618140  0.38762374  0.01960511     0.11000
H1712       H  0.57434553  0.37402692  0.07917414     0.11000
C1713       C  0.62703949  0.09726293  0.47618471    -0.15100
C1714       C  0.64497722  0.10762930  0.44420562     0.07000
C1715       C  0.67273919  0.10582143  0.44257129    -0.15100
C1716       C  0.68269741  0.09481731  0.47224752    -0.15100
C1717       C  0.66537982  0.08553960  0.50468648     0.07000
C1718       C  0.63713832  0.08644629  0.50601278    -0.15100
H1719       H  0.60588257  0.09880379  0.47879000     0.11000
H1720       H  0.68749119  0.11401366  0.41870077     0.11000
H1721       H  0.70454297  0.09452173  0.47015851     0.11000
H1722       H  0.62308417  0.07936047  0.53046742     0.11000
C1723       C  0.83396659  0.04782369  0.63335134    -0.15100
C1724       C  0.85680425  0.07933296  0.63949004     0.07000
C1725       C  0.84686769  0.10111360  0.64732953    -0.15100
C1726       C  0.81520714  0.09261611  0.64435380    -0.15100
C1727       C  0.79263783  0.06187349  0.63441759     0.07000
C1728       C  0.80203245  0.03905991  0.63124949    -0.15100
H1729       H  0.84100305  0.03082197  0.62603714     0.11000
H1730       H  0.86407015  0.12572536  0.65120559     0.11000
H1731       H  0.80874812  0.11066955  0.64716117     0.11000
H1732       H  0.78515858  0.01515365  0.62348747     0.11000
C1733       C  0.63249568  0.99514104  0.73001957    -0.15100
C1734       C  0.66305550  0.01178530  0.71572779     0.07000
C1735       C  0.68861616  0.51845334  0.73848147    -0.15100
C1736       C  0.68394285  0.50743303  0.77402709    -0.15100
C1737       C  0.65348564  0.48915634  0.78806595     0.07000
C1738       C  0.62771831  0.48385017  0.76607677    -0.15100
H1739       H  0.61237715  0.98955217  0.71285132     0.11000
H1740       H  0.71242243  0.03149185  0.72833747     0.11000
H1741       H  0.70446500  0.51276846  0.79033593     0.11000
H1742       H  0.60401901  0.47015239  0.77627054     0.11000
C1743       C  0.60585418  0.47010768  0.52326452    -0.15100
C1744       C  0.61673442  0.46227014  0.55486503     0.07000
C1745       C  0.61666472  0.43343118  0.55531917    -0.15100
C1746       C  0.60716734  0.41364755  0.52458184    -0.15100
C1747       C  0.59781666  0.42233272  0.49239763     0.07000
C1748       C  0.59661520  0.45049308  0.49252064    -0.15100
H1749       H  0.60596314  0.49223358  0.52157944     0.11000
H1750       H  0.62525780  0.42674476  0.57896379     0.11000
H1751       H  0.60821278  0.39209946  0.52560562     0.11000
H1752       H  0.58919096  0.45783830  0.46841397     0.11000
C1753       C  0.74139541  0.46016685  0.49943550    -0.15100
C1754       C  0.76030807  0.47983141  0.47151781     0.07000
C1755       C  0.76241126  0.00904397  0.46544026    -0.15100
C1756       C  0.74652367  0.01897869  0.48767012    -0.15100
C1757       C  0.72854383  0.99994733  0.51643372     0.07000
C1758       C  0.72537068  0.47017536  0.52182336    -0.15100
H1759       H  0.73896282  0.43719037  0.50382969     0.11000
H1760       H  0.77655018  0.02437389  0.44364896     0.11000
H1761       H  0.74920708  0.04205626  0.48316599     0.11000
H1762       H  0.71177830  0.45537802  0.54423616     0.11000
C1763       C  0.90686086  0.36892729  0.97007833    -0.15100
C1764       C  0.88998023  0.34758732  0.94195911     0.07000
C1765       C  0.88407556  0.31640417  0.94540916    -0.15100
C1766       C  0.89373376  0.30660684  0.97649331    -0.15100
C1767       C  0.90986145  0.32773229  0.00505023     0.07000
C1768       C  0.91683149  0.35920790  0.00100053    -0.15100
H1769       H  0.91146901  0.39293818  0.96878037     0.11000
H1770       H  0.87071745  0.29906487  0.92470269     0.11000
H1771       H  0.88808439  0.28229069  0.97841048     0.11000
H1772       H  0.92933291  0.37626675  0.02227707     0.11000
C1773       C  0.78401619  0.25171026  0.97565402    -0.15100
C1774       C  0.77793740  0.27666357  0.97944930     0.07000
C1775       C  0.75711522  0.27562968  0.00594181    -0.15100
C1776       C  0.74146205  0.24932463  0.02748240    -0.15100
C1777       C  0.74662161  0.22389622  0.02289315     0.07000
C1778       C  0.76818230  0.22520406  0.99726930    -0.15100
H1779       H  0.79992475  0.25212961  0.95508007     0.11000
H1780       H  0.75215275  0.29470445  0.00921412     0.11000
H1781       H  0.72518049  0.24879324  0.04763221     0.11000
H1782       H  0.77296996  0.20599421  0.99427609     0.11000
C1783       C  0.70565223  0.24292081  0.86507137    -0.15100
C1784       C  0.71477762  0.27508420  0.86218029     0.07000
C1785       C  0.69192874  0.28307824  0.85261484    -0.15100
C1786       C  0.66034699  0.25975538  0.84951953    -0.15100
C1787       C  0.65073459  0.22800912  0.85670747     0.07000
C1788       C  0.67381942  0.21958566  0.86275865    -0.15100
H1789       H  0.72270720  0.23597075  0.87254116     0.11000
H1790       H  0.69812004  0.30751577  0.85001482     0.11000
H1791       H  0.64292319  0.26695046  0.84568548     0.11000
H1792       H  0.66704908  0.19552741  0.86959133     0.11000
C1793       C  0.74429272  0.39045086  0.84391312    -0.15100
C1794       C  0.77576478  0.41281157  0.85192019     0.07000
C1795       C  0.78321657  0.44383413  0.85923255    -0.15100
C1796       C  0.75923097  0.45131619  0.86299545    -0.15100
C1797       C  0.72737145  0.42769689  0.86032337     0.07000
C1798       C  0.72025035  0.39761295  0.84870684    -0.15100
H1799       H  0.73784990  0.36617366  0.83892157     0.11000
H1800       H  0.80704776  0.46129851  0.86652429     0.11000
H1801       H  0.76555440  0.47485164  0.87171950     0.11000
H1802       H  0.69604915  0.37902014  0.84599578     0.11000
C1803       C  0.87301809  0.45347043  0.98912205    -0.15100
C1804       C  0.84443821  0.42477117  0.99039825     0.07000
C1805       C  0.82713632  0.41686669  0.02284059    -0.15100
C1806       C  0.83723976  0.43776361  0.05242457    -0.15100
C1807       C  0.86508031  0.46711670  0.05060122     0.07000
C1808       C  0.88324236  0.47434061  0.01884730    -0.15100
H1809       H  0.88713130  0.46021387  0.96471764     0.11000
H1810       H  0.80511450  0.39497260  0.02493523     0.11000
H1811       H  0.82243467  0.43144358  0.07623236     0.11000
H1812       H  0.90457735  0.49682157  0.01623387     0.11000
C1813       C  0.81691480  0.38998065  0.51759141    -0.15100
C1814       C  0.83654774  0.40262757  0.48724199     0.07000
C1815       C  0.86649988  0.40530379  0.48861124    -0.15100
C1816       C  0.87593144  0.39423714  0.51874935    -0.15100
C1817       C  0.85579622  0.38049072  0.54853283     0.07000
C1818       C  0.82642392  0.37916751  0.54780164    -0.15100
H1819       H  0.79386734  0.38783327  0.51771102     0.11000
H1820       H  0.88231984  0.41501148  0.46578269     0.11000
H1821       H  0.89844323  0.39519993  0.51800058     0.11000
H1822       H  0.81008675  0.36847434  0.57000935     0.11000
C1823       C  0.74630843  0.21733058  0.47318822    -0.15100
C1824       C  0.72491193  0.22834943  0.47307602     0.07000
C1825       C  0.73150405  0.25549470  0.49276487    -0.15100
C1826       C  0.75920806  0.27149217  0.51233511    -0.15100
C1827       C  0.78049871  0.26034766  0.51274259     0.07000
C1828       C  0.77402776  0.23330881  0.49288288    -0.15100
H1829       H  0.74189942  0.19674893  0.45764430     0.11000
H1830       H  0.71546705  0.26467343  0.49268323     0.11000
H1831       H  0.76352671  0.29205133  0.52786926     0.11000
H1832       H  0.79004880  0.22411432  0.49316220     0.11000
C1833       C  0.75010089  0.19586739  0.62808409    -0.15100
C1834       C  0.78201250  0.20451578  0.63192155     0.07000
C1835       C  0.78940426  0.18199231  0.64473355    -0.15100
C1836       C  0.76556521  0.15080281  0.64993396    -0.15100
C1837       C  0.73407293  0.14133787  0.64133023     0.07000
C1838       C  0.72636656  0.16448777  0.63242616    -0.15100
H1839       H  0.74359844  0.21270538  0.61824446     0.11000
H1840       H  0.81366202  0.18794945  0.64829359     0.11000
H1841       H  0.77219663  0.13323351  0.65602000     0.11000
H1842       H  0.70255799  0.15777431  0.62445794     0.11000
C1843       C  0.87941848  0.36070044  0.72860985    -0.15100
C1844       C  0.85421026  0.33783105  0.70777667     0.07000
C1845       C  0.82409259  0.32257355  0.72324786    -0.15100
C1846       C  0.81932477  0.32889203  0.75872295    -0.15100
C1847       C  0.84444513  0.35069230  0.78021413     0.07000
C1848       C  0.87455188  0.36710582  0.76467892    -0.15100
H1849       H  0.90283552  0.37305800  0.71734998     0.11000
H1850       H  0.80390011  0.30525850  0.70802682     0.11000
H1851       H  0.79578768  0.31605422  0.76967030     0.11000
H1852       H  0.89438528  0.38390943  0.78076321     0.11000
C1853       C  0.89924216  0.23482404  0.65013425    -0.15100
C1854       C  0.92079517  0.26610713  0.64049290     0.07000
C1855       C  0.95147131  0.27369936  0.63145461    -0.15100
C1856       C  0.95930206  0.24990727  0.62803824    -0.15100
C1857       C  0.93635090  0.21804987  0.63281458     0.07000
C1858       C  0.90672373  0.21091844  0.64572635    -0.15100
H1859       H  0.87515895  0.22820261  0.65620287     0.11000
H1860       H  0.96818071  0.29730270  0.62263651     0.11000
H1861       H  0.98238830  0.25617214  0.61802335     0.11000
H1862       H  0.88865336  0.18669913  0.64989333     0.11000
C1863       C  0.94480568  0.32504104  0.43990279    -0.15100
C1864       C  0.97450457  0.35238104  0.44299852     0.07000
C1865       C  0.98178726  0.36979654  0.47549735    -0.15100
C1866       C  0.96053989  0.35944754  0.50458008    -0.15100
C1867       C  0.93135859  0.33144418  0.50198399     0.07000
C1868       C  0.92349280  0.31479701  0.46890350    -0.15100
H1869       H  0.93844685  0.31079981  0.41546708     0.11000
H1870       H  0.50453604  0.39065790  0.47913512     0.11000
H1871       H  0.96736069  0.37303362  0.52953146     0.11000
H1872       H  0.90125528  0.29323312  0.46580978     0.11000
O1873       O  0.83294311  0.73956991  0.60733603    -0.83600
C1874       C  0.86254912  0.86266571  0.57685216     0.95800
O1875       O  0.84125942  0.84575084  0.59905595    -0.72700
O1876       O  0.81126236  0.79674873  0.55762565    -0.76300
Al1877     Al  0.82478780  0.80159916  0.60601757     1.49000
C1878       C  0.80664356  0.77374255  0.53823476     0.91000
O1879       O  0.88270993  0.79560058  0.53097275    -0.82500
O1880       O  0.90851273  0.80832307  0.63533896    -0.76100
Al1881     Al  0.85815152  0.76946717  0.57051988     1.90100
O1882       O  0.91943256  0.83251772  0.56469798    -0.75100
O1883       O  0.88280587  0.84484613  0.65183791    -0.75000
O1884       O  0.88788835  0.86172847  0.57690304    -0.80600
O1885       O  0.83437178  0.80621805  0.65555734    -0.78800
O1886       O  0.85992359  0.80162911  0.59465639    -1.15000
O1887       O  0.80029562  0.75741029  0.61507130    -0.74200
C1888       C  0.80674548  0.73558397  0.61824672     0.96500
C1889       C  0.90992929  0.81931230  0.53401446     0.92900
Al1890     Al  0.89690301  0.83451592  0.60660782     1.55600
O1891       O  0.82214793  0.75994934  0.54307518    -0.78800
C1892       C  0.85777550  0.82923269  0.66998980     0.97100
C1893       C  0.90733722  0.78359702  0.62259506     0.92000
O1894       O  0.89353037  0.77170124  0.59302090    -0.84100
O1895       O  0.75122494  0.82606876  0.88564927    -0.83600
C1896       C  0.87401035  0.85587806  0.91254658     0.95800
O1897       O  0.85770057  0.83559954  0.88871680    -0.72700
O1898       O  0.81006110  0.80452080  0.93070585    -0.76300
Al1899     Al  0.81327364  0.81858538  0.88300875     1.49000
C1900       C  0.78880001  0.80100775  0.95214629     0.91000
O1901       O  0.80876873  0.87643294  0.96057148    -0.82500
O1902       O  0.81931970  0.90249840  0.85680140    -0.76100
Al1903     Al  0.78205925  0.85163219  0.92148045     1.90100
O1904       O  0.84496727  0.91347743  0.92711736    -0.75100
O1905       O  0.85564482  0.87712978  0.83843591    -0.75000
O1906       O  0.87360693  0.88154658  0.91331151    -0.80600
O1907       O  0.81620646  0.82899618  0.83377101    -0.78800
O1908       O  0.81352181  0.85367430  0.89613162    -1.15000
O1909       O  0.76866828  0.79343602  0.87541340    -0.74200
C1910       C  0.74668001  0.79976158  0.87417763     0.96500
C1911       C  0.83223953  0.90373311  0.95782060     0.92900
Al1912     Al  0.84612414  0.89091653  0.88447901     1.55600
O1913       O  0.77450001  0.81618043  0.94847713    -0.78800
C1914       C  0.83859048  0.85283021  0.81936679     0.97100
C1915       C  0.79436846  0.90050220  0.86975864     0.92000
O1916       O  0.78312712  0.88666854  0.89939688    -0.84100
O1917       O  0.75700893  0.57666044  0.60924422    -0.83600
C1918       C  0.63345364  0.98641758  0.58390473     0.95800
O1919       O  0.64947961  0.98186307  0.60770929    -0.72700
O1920       O  0.69732324  0.49636758  0.56618688    -0.76300
Al1921     Al  0.69409942  0.50827630  0.61356358     1.49000
C1922       C  0.71823470  0.51368035  0.54410068     0.91000
O1923       O  0.69988971  0.57086235  0.53440646    -0.82500
O1924       O  0.69038989  0.58771411  0.63794846    -0.76100
Al1925     Al  0.72639547  0.57199585  0.57359768     1.90100
O1926       O  0.66461523  0.57333238  0.56793371    -0.75100
O1927       O  0.65259374  0.52649957  0.65694284    -0.75000
O1928       O  0.63484856  0.51294152  0.58258863    -0.80600
O1929       O  0.69124566  0.51657775  0.66265552    -0.78800
O1930       O  0.69475097  0.54346990  0.59943167    -1.15000
O1931       O  0.73859565  0.52677056  0.62147307    -0.74200
C1932       C  0.76094220  0.55484167  0.62189836     0.96500
C1933       C  0.67711984  0.57589224  0.53719936     0.92900
Al1934     Al  0.66286338  0.54949579  0.61079245     1.55600
O1935       O  0.73265469  0.54314652  0.54704011    -0.78800
C1936       C  0.66916595  0.51894656  0.67652518     0.97100
C1937       C  0.71554951  0.61005980  0.62465008     0.92000
O1938       O  0.72669655  0.60668427  0.59535806    -0.84100
O1939       O  0.67637391  0.91118689  0.88518593    -0.83600
C1940       C  0.64559659  0.50359410  0.91854249     0.95800
O1941       O  0.66693188  0.50820082  0.89635126    -0.72700
O1942       O  0.69736603  0.98896500  0.93705178    -0.76300
Al1943     Al  0.68370912  0.98090516  0.88861334     1.49000
C1944       C  0.70284637  0.97065102  0.95556236     0.91000
O1945       O  0.62737957  0.91612924  0.96327564    -0.82500
O1946       O  0.59920558  0.90324559  0.86005477    -0.76100
Al1947     Al  0.65146658  0.91509065  0.92297948     1.90100
O1948       O  0.58996182  0.91676428  0.93113920    -0.75100
O1949       O  0.62495954  0.96563143  0.84352210    -0.75000
O1950       O  0.62054155  0.97719952  0.91868268    -0.80600
O1951       O  0.67387284  0.97666075  0.83924318    -0.78800
O1952       O  0.64886254  0.94546671  0.89975949    -1.15000
O1953       O  0.70869213  0.96177823  0.87855004    -0.74200
C1954       C  0.70248129  0.93366570  0.87452019     0.96500
C1955       C  0.60021567  0.91300703  0.96131786     0.92900
Al1956     Al  0.61150596  0.94115483  0.88882624     1.55600
O1957       O  0.68786316  0.94147346  0.95008612    -0.78800
C1958       C  0.65012552  0.97604025  0.82532217     0.97100
C1959       C  0.60063709  0.87966749  0.87236506     0.92000
O1960       O  0.61595496  0.88186642  0.90081442    -0.84100
O1961       O  0.91991099  0.66688651  0.60819162    -0.83600
C1962       C  0.51054699  0.63341531  0.57913264     0.95800
O1963       O  0.51562884  0.65537222  0.60087507    -0.72700
O1964       O  0.99847535  0.68743326  0.55927364    -0.76300
Al1965     Al  0.98913100  0.67323187  0.60763866     1.49000
C1966       C  0.98044278  0.69263071  0.53972321     0.91000
O1967       O  0.92585252  0.61726415  0.53143750    -0.82500
O1968       O  0.91070312  0.59024823  0.63526102    -0.76100
Al1969     Al  0.92414991  0.64159345  0.57111213     1.90100
O1970       O  0.92378945  0.57903083  0.56441795    -0.75100
O1971       O  0.97256242  0.61416763  0.65265667    -0.75000
O1972       O  0.98392193  0.60868909  0.57856846    -0.80600
O1973       O  0.98380068  0.66322752  0.65691197    -0.78800
O1974       O  0.95368396  0.63861586  0.59560285    -1.15000
O1975       O  0.97037534  0.69876325  0.61679791    -0.74200
C1976       C  0.94232614  0.69289794  0.61949043     0.96500
C1977       C  0.92172748  0.58969422  0.53370815     0.92900
Al1978     Al  0.94821589  0.60085387  0.60720961     1.55600
O1979       O  0.95126950  0.67772160  0.54451387    -0.78800
C1980       C  0.98326671  0.63951547  0.67078717     0.97100
C1981       C  0.88769095  0.59217256  0.62205439     0.92000
O1982       O  0.89024005  0.60627308  0.59253741    -0.84100
O1983       O  0.58377610  0.74904970  0.88581092    -0.83600
C1984       C  0.99598650  0.62456738  0.91016637     0.95800
O1985       O  0.99095195  0.64019735  0.88632154    -0.72700
O1986       O  0.50358790  0.68796894  0.92797715    -0.76300
Al1987     Al  0.51630351  0.68498203  0.88082852     1.49000
C1988       C  0.52029644  0.70946576  0.95004919     0.91000
O1989       O  0.57808599  0.69269135  0.96143876    -0.82500
O1990       O  0.59749948  0.68355191  0.85882062    -0.76100
Al1991     Al  0.57940629  0.71889744  0.92194537     1.90100
O1992       O  0.58243560  0.65792437  0.92864547    -0.75100
O1993       O  0.53679205  0.64458015  0.83825776    -0.75000
O1994       O  0.52274948  0.62672901  0.91195278    -0.80600
O1995       O  0.52523573  0.68217944  0.83207292    -0.78800
O1996       O  0.55182338  0.68671973  0.89572975    -1.15000
O1997       O  0.53381570  0.72954505  0.87304642    -0.74200
C1998       C  0.56164217  0.75236829  0.87290542     0.96500
C1999       C  0.58375957  0.67025548  0.95929545     0.92900
Al2000     Al  0.55914525  0.65541832  0.88490090     1.55600
O2001       O  0.54972097  0.72463462  0.94740386    -0.78800
C2002       C  0.52844612  0.66040947  0.81850693     0.97100
C2003       C  0.61929135  0.70895141  0.87266745     0.92000
O2004       O  0.61498377  0.72003698  0.90155511    -0.84100
O2005       O  0.61049598  0.71797151  0.39766457    -0.83600
C2006       C  0.63804520  0.62511025  0.41550278     0.95800
O2007       O  0.61330371  0.62721839  0.41636477    -0.72700
O2008       O  0.58393900  0.65884973  0.42735015    -0.76300
Al2009     Al  0.60453842  0.65412336  0.38564803     1.49000
C2010       C  0.59522789  0.67156997  0.45774536     0.91000
O2011       O  0.68269196  0.72848026  0.44434210    -0.82500
O2012       O  0.70168382  0.72846720  0.37080745    -0.76100
Al2013     Al  0.64623302  0.71948462  0.41875847     1.90100
O2014       O  0.69261789  0.69107583  0.42953170    -0.75100
O2015       O  0.66430604  0.67806190  0.33294052    -0.75000
O2016       O  0.65863757  0.64040835  0.39175426    -0.80600
O2017       O  0.61576161  0.64058437  0.34141918    -0.78800
O2018       O  0.64255699  0.68633749  0.39520169    -1.15000
O2019       O  0.59394324  0.68083378  0.35582806    -0.74200
C2020       C  0.59676266  0.70655038  0.36787629     0.96500
C2021       C  0.69813396  0.71458159  0.44851988     0.92900
Al2022     Al  0.67645244  0.68455830  0.38209726     1.55600
O2023       O  0.62290224  0.69461028  0.45958078    -0.78800
C2024       C  0.63941260  0.65504350  0.32113034     0.97100
C2025       C  0.69618993  0.75103913  0.36885997     0.92000
O2026       O  0.67063420  0.74798639  0.38078127    -0.84100
O2027       O  0.74084355  0.62254346  0.10859119    -0.83600
C2028       C  0.64059698  0.64139816  0.07950637     0.95800
O2029       O  0.63673553  0.61575128  0.09349624    -0.72700
O2030       O  0.66329474  0.58688066  0.06440556    -0.76300
Al2031     Al  0.66751539  0.60394095  0.11144645     1.49000
C2032       C  0.68246003  0.59091284  0.03980782     0.91000
O2033       O  0.72939017  0.67179843  0.04059936    -0.82500
O2034       O  0.73546145  0.69057352  0.14625700    -0.76100
Al2035     Al  0.73302873  0.64661326  0.07652468     1.90100
O2036       O  0.72485633  0.70333675  0.07867190    -0.75100
O2037       O  0.67358666  0.66061151  0.15574929    -0.75000
O2038       O  0.66522841  0.66724706  0.08537310    -0.80600
O2039       O  0.66447456  0.61283240  0.16176473    -0.78800
O2040       O  0.69995456  0.64207313  0.10134654    -1.15000
O2041       O  0.69430203  0.58685809  0.12843835    -0.74200
C2042       C  0.72393846  0.59812679  0.12647210     0.96500
C2043       C  0.73230053  0.69804837  0.04811389     0.92900
Al2044     Al  0.69951351  0.67695029  0.11542777     1.55600
O2045       O  0.71069850  0.61227121  0.04311862    -0.78800
C2046       C  0.66365020  0.63623123  0.17436764     0.97100
C2047       C  0.76163787  0.69624119  0.13331252     0.92000
O2048       O  0.76302179  0.68240572  0.10476763    -0.84100
O2049       O  0.76751221  0.88579126  0.38473522    -0.83600
C2050       C  0.86747200  0.50471997  0.41362711     0.95800
O2051       O  0.87138173  0.98297271  0.39982224    -0.72700
O2052       O  0.84506761  0.92788461  0.42976103    -0.76300
Al2053     Al  0.84074980  0.94051870  0.38236739     1.49000
C2054       C  0.82574966  0.91244062  0.45414559     0.91000
O2055       O  0.77834283  0.94566579  0.45323108    -0.82500
O2056       O  0.77179985  0.95909099  0.34790792    -0.76100
Al2057     Al  0.77499574  0.91725474  0.41705062     1.90100
O2058       O  0.78298328  0.98216450  0.41571736    -0.75100
O2059       O  0.83354548  0.99048238  0.33771058    -0.75000
O2060       O  0.84269128  0.50580870  0.40799394    -0.80600
O2061       O  0.84381150  0.95251116  0.33190244    -0.78800
O2062       O  0.80801275  0.94599912  0.39235142    -1.15000
O2063       O  0.81430221  0.89670577  0.36564398    -0.74200
C2064       C  0.78467149  0.87837882  0.36721706     0.96500
C2065       C  0.77523398  0.96896863  0.44606874     0.92900
Al2066     Al  0.80809195  0.98120722  0.37841406     1.55600
O2067       O  0.79741206  0.90515972  0.45035452    -0.78800
C2068       C  0.84403421  0.97647100  0.31918091     0.97100
C2069       C  0.74574461  0.93817418  0.36063514     0.92000
O2070       O  0.74471611  0.92287953  0.38900314    -0.84100
O2071       O  0.89905930  0.61266964  0.09785450    -0.83600
C2072       C  0.87178524  0.99178776  0.07862095     0.95800
O2073       O  0.89625798  0.51862287  0.07713356    -0.72700
O2074       O  0.92559993  0.57929853  0.06536476    -0.76300
Al2075     Al  0.90524038  0.55417892  0.10761907     1.49000
C2076       C  0.91421220  0.58195023  0.03547625     0.91000
O2077       O  0.82694775  0.55135946  0.04960339    -0.82500
O2078       O  0.80737926  0.53139758  0.12170898    -0.76100
Al2079     Al  0.86345248  0.57877431  0.07581382     1.90100
O2080       O  0.81814048  0.50409534  0.06317485    -0.75100
O2081       O  0.84500229  0.51880680  0.16023591    -0.75000
O2082       O  0.85122647  0.98677962  0.10225823    -0.80600
O2083       O  0.89361722  0.52945815  0.15224801    -0.78800
O2084       O  0.86729363  0.54892455  0.09841026    -1.15000
O2085       O  0.91668410  0.59121503  0.13746486    -0.74200
C2086       C  0.91389649  0.61440575  0.12666914     0.96500
C2087       C  0.81213950  0.52206596  0.04465893     0.92900
Al2088     Al  0.83331241  0.51319604  0.11102035     1.55600
O2089       O  0.88688358  0.57834480  0.03457318    -0.78800
C2090       C  0.86982207  0.52056198  0.17238830     0.97100
C2091       C  0.81294920  0.55938925  0.12486104     0.92000
O2092       O  0.83888664  0.58203634  0.11419954    -0.84100
O2093       O  0.89229372  0.76183868  0.11198227    -0.83600
C2094       C  0.51284735  0.85755324  0.07871244     0.95800
O2095       O  0.99173237  0.86284590  0.09136632    -0.72700
O2096       O  0.93617570  0.83725910  0.06225700    -0.76300
Al2097     Al  0.94940055  0.83429162  0.10994747     1.49000
C2098       C  0.91928054  0.81723148  0.03890547     0.91000
O2099       O  0.94880244  0.76633760  0.04197766    -0.82500
O2100       O  0.96474220  0.76364063  0.14721086    -0.76100
Al2101     Al  0.92217628  0.76630709  0.07866113     1.90100
O2102       O  0.98625982  0.77210961  0.07893423    -0.75100
O2103       O  0.99806859  0.82545098  0.15584867    -0.75000
O2104       O  0.51261665  0.83222620  0.08534945    -0.80600
O2105       O  0.96237200  0.83900689  0.16016154    -0.78800
O2106       O  0.95270385  0.79990101  0.10159774    -1.15000
O2107       O  0.90616138  0.81034168  0.12813213    -0.74200
C2108       C  0.88686938  0.78086502  0.12880923     0.96500
C2109       C  0.97235633  0.76353057  0.04890590     0.92900
Al2110     Al  0.98723925  0.79876043  0.11568930     1.55600
O2111       O  0.91044534  0.78859890  0.04431559    -0.78800
C2112       C  0.98547282  0.83794082  0.17347326     0.97100
C2113       C  0.94337643  0.73740989  0.13521167     0.92000
O2114       O  0.92712086  0.73603117  0.10757769    -0.84100
O2115       O  0.62011020  0.88805747  0.39504557    -0.83600
C2116       C  0.99929845  0.85942191  0.41528844     0.95800
O2117       O  0.52600398  0.88407504  0.41735677    -0.72700
O2118       O  0.58679593  0.91420123  0.42891488    -0.76300
Al2119     Al  0.56149958  0.89411849  0.38666660     1.49000
C2120       C  0.58985509  0.90285624  0.45850796     0.91000
O2121       O  0.55969299  0.81528785  0.44228938    -0.82500
O2122       O  0.53987441  0.79718026  0.36755503    -0.76100
Al2123     Al  0.58669583  0.85214327  0.41674601     1.90100
O2124       O  0.51216076  0.80473165  0.42725201    -0.75100
O2125       O  0.52658106  0.83541198  0.33157717    -0.75000
O2126       O  0.99439187  0.83909734  0.39114358    -0.80600
O2127       O  0.53665358  0.88356436  0.34221927    -0.78800
O2128       O  0.55666046  0.85598526  0.39434264    -1.15000
O2129       O  0.59844384  0.90647099  0.35666166    -0.74200
C2130       C  0.62167401  0.90350018  0.36688054     0.96500
C2131       C  0.53043339  0.79938545  0.44619614     0.92900
Al2132     Al  0.52123193  0.82206192  0.38031042     1.55600
O2133       O  0.58637273  0.87547996  0.45883951    -0.78800
C2134       C  0.52820136  0.86054260  0.32079189     0.97100
C2135       C  0.56762535  0.80212175  0.36568740     0.92000
O2136       O  0.59022862  0.82757127  0.37796061    -0.84100
C2137       C  0.98085675  0.85507173  0.23700891    -0.15100
C2138       C  0.99833865  0.85021938  0.21020949     0.07000
C2139       C  0.52786716  0.85399905  0.21971554    -0.15100
C2140       C  0.53845184  0.85967144  0.25558397    -0.15100
C2141       C  0.52013354  0.86234470  0.28270727     0.07000
C2142       C  0.99175061  0.86111168  0.27320605    -0.15100
H2143       H  0.95808917  0.85233847  0.23047260     0.11000
H2144       H  0.54221078  0.85092811  0.19967654     0.11000
H2145       H  0.56031308  0.86042154  0.26251095     0.11000
H2146       H  0.97714057  0.86273291  0.29407217     0.11000
C2147       C  0.90378551  0.65204369  0.15924812    -0.15100
C2148       C  0.92618255  0.64432500  0.14677464     0.07000
C2149       C  0.95675756  0.66882127  0.13988380    -0.15100
C2150       C  0.96370926  0.70030960  0.14153427    -0.15100
C2151       C  0.93998734  0.70760359  0.14922781     0.07000
C2152       C  0.91042053  0.68334257  0.15982337    -0.15100
H2153       H  0.87980606  0.63357772  0.16375007     0.11000
H2154       H  0.97410107  0.66359132  0.12895107     0.11000
H2155       H  0.98646929  0.71859979  0.13230604     0.11000
H2156       H  0.89160309  0.68828433  0.16509702     0.11000
C2157       C  0.66061892  0.89436316  0.33638251    -0.15100
C2158       C  0.65155368  0.91630744  0.34688034     0.07000
C2159       C  0.67500313  0.94779652  0.35193828    -0.15100
C2160       C  0.70690942  0.95620648  0.35092871    -0.15100
C2161       C  0.71558389  0.93309828  0.34556316     0.07000
C2162       C  0.69226502  0.90251143  0.33638713    -0.15100
H2163       H  0.64302770  0.86977976  0.33316872     0.11000
H2164       H  0.66875676  0.96494814  0.36112794     0.11000
H2165       H  0.72448420  0.97981688  0.35890783     0.11000
H2166       H  0.69826718  0.88418427  0.33286606     0.11000
C2167       C  0.86127087  0.97178251  0.25567809    -0.15100
C2168       C  0.85581592  0.98904367  0.28232733     0.07000
C2169       C  0.85945276  0.01857157  0.27289348    -0.15100
C2170       C  0.86619324  0.02963012  0.23737698    -0.15100
C2171       C  0.87013646  0.51184450  0.21048710     0.07000
C2172       C  0.86839908  0.48317608  0.21982528    -0.15100
H2173       H  0.85858714  0.44899743  0.26209671     0.11000
H2174       H  0.85579260  0.03274788  0.29271463     0.11000
H2175       H  0.86701521  0.05155317  0.23050363     0.11000
H2176       H  0.87072064  0.46884499  0.19903016     0.11000
C2177       C  0.80166034  0.75279308  0.13673905    -0.15100
C2178       C  0.79141665  0.72173995  0.14808611     0.07000
C2179       C  0.81323030  0.71445431  0.16321071    -0.15100
C2180       C  0.84520159  0.73685496  0.16325435    -0.15100
C2181       C  0.85598461  0.76650587  0.14689095     0.07000
C2182       C  0.83384776  0.77512410  0.13609002    -0.15100
H2183       H  0.78519029  0.75864263  0.12417938     0.11000
H2184       H  0.80595078  0.69056145  0.17144761     0.11000
H2185       H  0.86182635  0.72949841  0.17142662     0.11000
H2186       H  0.84143657  0.79744134  0.12267319     0.11000
C2187       C  0.75590590  0.54342111  0.12987085    -0.15100
C2188       C  0.78766641  0.56533455  0.13750530     0.07000
C2189       C  0.79507230  0.59469811  0.15187595    -0.15100
C2190       C  0.77188912  0.60321421  0.15480659    -0.15100
C2191       C  0.74103837  0.58305087  0.14214408     0.07000
C2192       C  0.73275964  0.55230843  0.13189380    -0.15100
H2193       H  0.74949678  0.52053895  0.11870281     0.11000
H2194       H  0.81918763  0.61193574  0.15831362     0.11000
H2195       H  0.77900143  0.62717875  0.16262824     0.11000
H2196       H  0.70946150  0.53651231  0.12131308     0.11000
C2197       C  0.71394754  0.80408418  0.34151293    -0.15100
C2198       C  0.72135720  0.78218872  0.35621198     0.07000
C2199       C  0.75306352  0.79198413  0.36422756    -0.15100
C2200       C  0.77614872  0.82393551  0.36222625    -0.15100
C2201       C  0.76785831  0.84633829  0.35153692     0.07000
C2202       C  0.73710119  0.83569663  0.33848574    -0.15100
H2203       H  0.68987553  0.79723251  0.33480010     0.11000
H2204       H  0.75943229  0.77553690  0.37570870     0.11000
H2205       H  0.79936105  0.83142259  0.37315144     0.11000
H2206       H  0.73000603  0.85252273  0.33033151     0.11000
C2207       C  0.64236133  0.61966736  0.27437771    -0.15100
C2208       C  0.63865176  0.64552829  0.28324724     0.07000
C2209       C  0.63990802  0.66584850  0.25585643    -0.15100
C2210       C  0.64617120  0.66136421  0.22020815    -0.15100
C2211       C  0.65188493  0.63671250  0.21122160     0.07000
C2212       C  0.64891577  0.61521332  0.23840704    -0.15100
H2213       H  0.64202338  0.60411257  0.29555099     0.11000
H2214       H  0.63746167  0.68609020  0.26239089     0.11000
H2215       H  0.64791453  0.67818537  0.19989087     0.11000
H2216       H  0.65327230  0.59610845  0.23228865     0.11000
C2217       C  0.60264901  0.78184534  0.34293627    -0.15100
C2218       C  0.57274791  0.77613992  0.35292870     0.07000
C2219       C  0.54847401  0.74459319  0.35649302    -0.15100
C2220       C  0.55496280  0.71972038  0.35498612    -0.15100
C2221       C  0.58564990  0.72582935  0.34890251     0.07000
C2222       C  0.60881904  0.75686751  0.34031723    -0.15100
H2223       H  0.62180655  0.80573401  0.33983893     0.11000
H2224       H  0.52512099  0.73932041  0.36431780     0.11000
H2225       H  0.53688684  0.69635656  0.36286671     0.11000
H2226       H  0.63284486  0.76234680  0.33630986     0.11000
C2227       C  0.59931310  0.67561917  0.02551640    -0.15100
C2228       C  0.59310538  0.65906472  0.99249153     0.07000
C2229       C  0.59753771  0.63274098  0.99116747    -0.15100
C2230       C  0.60967814  0.62445221  0.02136672    -0.15100
C2231       C  0.61786156  0.64241953  0.05345925     0.07000
C2232       C  0.61180797  0.66760413  0.05540141    -0.15100
H2233       H  0.59609187  0.69587575  0.02771530     0.11000
H2234       H  0.59287725  0.61932342  0.96626598     0.11000
H2235       H  0.61502772  0.60559831  0.01860823     0.11000
H2236       H  0.61856848  0.68233867  0.07946224     0.11000
C2237       C  0.94318066  0.60701998  0.93846491    -0.15100
C2238       C  0.97220599  0.60766117  0.93903685     0.07000
C2239       C  0.98072670  0.59758834  0.97078372    -0.15100
C2240       C  0.96162569  0.58876105  0.00168745    -0.15100
C2241       C  0.93334926  0.58955379  0.00170706     0.07000
C2242       C  0.92392588  0.59793411  0.96934544    -0.15100
H2243       H  0.93599765  0.61497421  0.91467217     0.11000
H2244       H  0.50303597  0.59815393  0.97248618     0.11000
H2245       H  0.96944493  0.58202031  0.02595399     0.11000
H2246       H  0.90219459  0.59856113  0.96827190     0.11000
C2247       C  0.47510180  0.71358926  0.97328095    -0.15100
C2248       C  0.50594066  0.71933192  0.97761841     0.07000
C2249       C  0.52499391  0.73887615  0.00568850    -0.15100
C2250       C  0.51398853  0.75366360  0.02820787    -0.15100
C2251       C  0.98362589  0.74895395  0.02327027     0.07000
C2252       C  0.96397058  0.72852792  0.99606676    -0.15100
H2253       H  0.96019129  0.69870011  0.95149418     0.11000
H2254       H  0.54885369  0.74357952  0.00953240     0.11000
H2255       H  0.52946211  0.76910228  0.04931156     0.11000
H2256       H  0.94020428  0.72414554  0.99252485     0.11000
C2257       C  0.49188381  0.61760914  0.72984332    -0.15100
C2258       C  0.99709033  0.64321371  0.70770404     0.07000
C2259       C  0.01615882  0.67390613  0.72114619    -0.15100
C2260       C  0.02792157  0.67903728  0.75641638    -0.15100
C2261       C  0.52120947  0.65370614  0.77942507     0.07000
C2262       C  0.50389981  0.62285400  0.76566114    -0.15100
H2263       H  0.47765117  0.59373302  0.72001835     0.11000
H2264       H  0.02149600  0.69427305  0.70461921     0.11000
H2265       H  0.04143641  0.70303025  0.76624098     0.11000
H2266       H  0.49825745  0.60293028  0.78311512     0.11000
C2267       C  0.56476879  0.66575037  0.55388799    -0.15100
C2268       C  0.53468132  0.63892442  0.55149202     0.07000
C2269       C  0.52596512  0.62141817  0.51905313    -0.15100
C2270       C  0.54603125  0.63163135  0.48901914    -0.15100
C2271       C  0.57537262  0.65948142  0.49075019     0.07000
C2272       C  0.58493699  0.67583737  0.52391969    -0.15100
H2273       H  0.57213085  0.67992074  0.57840579     0.11000
H2274       H  0.50283659  0.60094569  0.51606599     0.11000
H2275       H  0.53808119  0.61820085  0.46399840     0.11000
H2276       H  0.60746877  0.69716411  0.52628572     0.11000
C2277       C  0.97307424  0.72709368  0.49642356    -0.15100
C2278       C  0.99326819  0.71834942  0.51351262     0.07000
C2279       C  0.52575941  0.73665455  0.50873021    -0.15100
C2280       C  0.53791372  0.76366398  0.48759618    -0.15100
C2281       C  0.51770998  0.77265445  0.47099746     0.07000
C2282       C  0.48521442  0.75409603  0.47538713    -0.15100
H2283       H  0.94787105  0.71349740  0.49998147     0.11000
H2284       H  0.54176455  0.73045442  0.52182346     0.11000
H2285       H  0.56311287  0.77733764  0.48403946     0.11000
H2286       H  0.96917390  0.76033870  0.46246765     0.11000
C2287       C  0.90785598  0.57990299  0.46713465    -0.15100
C2288       C  0.91342497  0.56942922  0.50051272     0.07000
C2289       C  0.90958325  0.53893140  0.50203253    -0.15100
C2290       C  0.89821223  0.51869589  0.47172187    -0.15100
C2291       C  0.89027558  0.52847333  0.43937607     0.07000
C2292       C  0.89619223  0.55961195  0.43711606    -0.15100
H2293       H  0.91085521  0.60327369  0.46472580     0.11000
H2294       H  0.91394478  0.53016149  0.52717130     0.11000
H2295       H  0.89305173  0.49457373  0.47461339     0.11000
H2296       H  0.88971348  0.56757880  0.41276130     0.11000
C2297       C  0.59771156  0.80588070  0.84730864    -0.15100
C2298       C  0.56800277  0.78390465  0.86048806     0.07000
C2299       C  0.54602974  0.79389053  0.86693560    -0.15100
C2300       C  0.55500669  0.82594955  0.86468785    -0.15100
C2301       C  0.58581797  0.84835986  0.85505284     0.07000
C2302       C  0.60632163  0.83764625  0.84411141    -0.15100
H2303       H  0.61507479  0.79891973  0.84197970     0.11000
H2304       H  0.52297078  0.77748267  0.87735112     0.11000
H2305       H  0.53909819  0.83355398  0.87455574     0.11000
H2306       H  0.63050926  0.85448165  0.83764435     0.11000
C2307       C  0.63245721  0.52152765  0.97689805    -0.15100
C2308       C  0.65204763  0.52819674  0.94653199     0.07000
C2309       C  0.68088288  0.55672881  0.94630183    -0.15100
C2310       C  0.69051540  0.57727679  0.97617585    -0.15100
C2311       C  0.67150587  0.57004364  0.00709580     0.07000
C2312       C  0.64199657  0.54226287  0.00670194    -0.15100
H2313       H  0.61039138  0.49961211  0.97836613     0.11000
H2314       H  0.69677007  0.56261051  0.92357656     0.11000
H2315       H  0.71317964  0.59856452  0.97533710     0.11000
H2316       H  0.62666980  0.53595695  0.03003467     0.11000
C2317       C  0.73875639  0.96353858  0.99682312    -0.15100
C2318       C  0.72931297  0.98352875  0.98070545     0.07000
C2319       C  0.74790343  0.51617433  0.98459103    -0.15100
C2320       C  0.77580926  0.52873766  0.00397657    -0.15100
C2321       C  0.78533262  0.50880602  0.02001948     0.07000
C2322       C  0.76667878  0.97612532  0.01633260    -0.15100
H2323       H  0.72494649  0.93822828  0.99372608     0.11000
H2324       H  0.74123241  0.53203904  0.97206574     0.11000
H2325       H  0.78960150  0.55406139  0.00693599     0.11000
H2326       H  0.77340424  0.96031985  0.02891017     0.11000
C2327       C  0.58857036  0.89502692  0.02645129    -0.15100
C2328       C  0.57969791  0.90389996  0.99409245     0.07000
C2329       C  0.55028097  0.90249796  0.99286390    -0.15100
C2330       C  0.52947834  0.89055261  0.02235562    -0.15100
C2331       C  0.53757005  0.87954610  0.05355694     0.07000
C2332       C  0.56767241  0.88276761  0.05564031    -0.15100
H2333       H  0.61105447  0.89600837  0.02856506     0.11000
H2334       H  0.54276606  0.90940156  0.96848958     0.11000
H2335       H  0.50618102  0.88762363  0.01960613     0.11000
H2336       H  0.57434601  0.87402822  0.07917547     0.11000
C2337       C  0.62704218  0.59726354  0.47618586    -0.15100
C2338       C  0.64497819  0.60762691  0.44420537     0.07000
C2339       C  0.67273848  0.60581601  0.44256915    -0.15100
C2340       C  0.68269707  0.59481232  0.47224547    -0.15100
C2341       C  0.66538156  0.58553823  0.50468602     0.07000
C2342       C  0.63714144  0.58644742  0.50601381    -0.15100
H2343       H  0.60588670  0.59880679  0.47879241     0.11000
H2344       H  0.68748885  0.61400565  0.41869741     0.11000
H2345       H  0.70454137  0.59451443  0.47015528     0.11000
H2346       H  0.62308884  0.57936426  0.53046971     0.11000
C2347       C  0.83396758  0.54782459  0.63335133    -0.15100
C2348       C  0.85680527  0.57933385  0.63948952     0.07000
C2349       C  0.84686887  0.60111450  0.64732944    -0.15100
C2350       C  0.81520828  0.59261693  0.64435487    -0.15100
C2351       C  0.79263885  0.56187422  0.63441922     0.07000
C2352       C  0.80203346  0.53906070  0.63125053    -0.15100
H2353       H  0.84100399  0.53082275  0.62603671     0.11000
H2354       H  0.86407143  0.62572637  0.65120510     0.11000
H2355       H  0.80874929  0.61067034  0.64716256     0.11000
H2356       H  0.78515941  0.51515431  0.62348877     0.11000
C2357       C  0.63249470  0.49513800  0.73001732    -0.15100
C2358       C  0.66305496  0.51178702  0.71572773     0.07000
C2359       C  0.68861649  0.01844630  0.73847943    -0.15100
C2360       C  0.68394325  0.00742557  0.77402478    -0.15100
C2361       C  0.65348624  0.98915387  0.78806599     0.07000
C2362       C  0.62771938  0.98385286  0.76607899    -0.15100
H2363       H  0.61237604  0.48954497  0.71284712     0.11000
H2364       H  0.71242223  0.53150252  0.72834098     0.11000
H2365       H  0.70446541  0.01275705  0.79033174     0.11000
H2366       H  0.60402025  0.97015915  0.77627454     0.11000
C2367       C  0.60585468  0.97010742  0.52326335    -0.15100
C2368       C  0.61673286  0.96226911  0.55486501     0.07000
C2369       C  0.61666131  0.93342925  0.55532036    -0.15100
C2370       C  0.60716426  0.91364543  0.52458313    -0.15100
C2371       C  0.59781586  0.92233148  0.49239779     0.07000
C2372       C  0.59661608  0.95049277  0.49251950    -0.15100
H2373       H  0.60596511  0.99223407  0.52157734     0.11000
H2374       H  0.62525270  0.92674219  0.57896593     0.11000
H2375       H  0.60820821  0.89209673  0.52560791     0.11000
H2376       H  0.58919362  0.95783860  0.46841210     0.11000
C2377       C  0.74139414  0.96016620  0.49943557    -0.15100
C2378       C  0.76030443  0.97982946  0.47151566     0.07000
C2379       C  0.76241739  0.50904723  0.46544467    -0.15100
C2380       C  0.74652953  0.51898169  0.48767428    -0.15100
C2381       C  0.72854711  0.49994891  0.51643567     0.07000
C2382       C  0.72536957  0.97017490  0.52182342    -0.15100
H2383       H  0.73896348  0.93719080  0.50383169     0.11000
H2384       H  0.77655822  0.52437819  0.44365509     0.11000
H2385       H  0.74921468  0.54206018  0.48317163     0.11000
H2386       H  0.71177916  0.95537865  0.54423805     0.11000
C2387       C  0.90685985  0.86892747  0.97008033    -0.15100
C2388       C  0.88998205  0.84758860  0.94195909     0.07000
C2389       C  0.88408009  0.81640623  0.94540687    -0.15100
C2390       C  0.89373817  0.80660833  0.97649071    -0.15100
C2391       C  0.90986296  0.82773266  0.00504961     0.07000
C2392       C  0.91683021  0.85920754  0.00100219    -0.15100
H2393       H  0.91146576  0.89293753  0.96878423     0.11000
H2394       H  0.87072415  0.79906771  0.92469857     0.11000
H2395       H  0.88809114  0.78229300  0.97840603     0.11000
H2396       H  0.92932940  0.87626561  0.02228058     0.11000
C2397       C  0.78401456  0.75171023  0.97565262    -0.15100
C2398       C  0.77793965  0.77666585  0.97945011     0.07000
C2399       C  0.75712150  0.77563523  0.00594613    -0.15100
C2400       C  0.74146823  0.74933083  0.02748780    -0.15100
C2401       C  0.74662329  0.72389983  0.02289587     0.07000
C2402       C  0.76818046  0.72520473  0.99726874    -0.15100
H2403       H  0.79992015  0.75212716  0.95507573     0.11000
H2404       H  0.75216221  0.79471180  0.00922022     0.11000
H2405       H  0.72518947  0.74880183  0.04764042     0.11000
H2406       H  0.77296484  0.70599296  0.99427321     0.11000
C2407       C  0.70565410  0.74292400  0.86506924    -0.15100
C2408       C  0.71477892  0.77508747  0.86218119     0.07000
C2409       C  0.69192930  0.78308158  0.85261951    -0.15100
C2410       C  0.66034753  0.75975845  0.84952500    -0.15100
C2411       C  0.65073592  0.72801188  0.85670999     0.07000
C2412       C  0.67382132  0.71958857  0.86275734    -0.15100
H2413       H  0.72270961  0.73597392  0.87253604     0.11000
H2414       H  0.69812003  0.80751896  0.85002191     0.11000
H2415       H  0.64292340  0.76695326  0.84569381     0.11000
H2416       H  0.66705163  0.69553006  0.86958757     0.11000
C2417       C  0.74429442  0.89045126  0.84391514    -0.15100
C2418       C  0.77576641  0.91281281  0.85192157     0.07000
C2419       C  0.78321742  0.94383519  0.85923376    -0.15100
C2420       C  0.75923121  0.95131639  0.86299711    -0.15100
C2421       C  0.72737188  0.92769635  0.86032569     0.07000
C2422       C  0.72025158  0.89761261  0.84870943    -0.15100
H2423       H  0.73785230  0.86617448  0.83892379     0.11000
H2424       H  0.80704848  0.96130010  0.86652498     0.11000
H2425       H  0.76555409  0.97485163  0.87172080     0.11000
H2426       H  0.69605035  0.87901912  0.84599884     0.11000
C2427       C  0.87301933  0.95347391  0.98912216    -0.15100
C2428       C  0.84444087  0.92477331  0.99039935     0.07000
C2429       C  0.82713998  0.91686785  0.02284250    -0.15100
C2430       C  0.83724285  0.93776514  0.05242612    -0.15100
C2431       C  0.86508172  0.96711953  0.05060175     0.07000
C2432       C  0.88324297  0.97434441  0.01884709    -0.15100
H2433       H  0.88713182  0.96021820  0.96471708     0.11000
H2434       H  0.80511934  0.89497273  0.02493802     0.11000
H2435       H  0.82243833  0.93144419  0.07623475     0.11000
H2436       H  0.90457677  0.99682639  0.01623282     0.11000
C2437       C  0.81691765  0.88998392  0.51759431    -0.15100
C2438       C  0.83654820  0.90262666  0.48724228     0.07000
C2439       C  0.86649869  0.90529893  0.48860850    -0.15100
C2440       C  0.87593104  0.89423292  0.51874641    -0.15100
C2441       C  0.85579828  0.88049095  0.54853280     0.07000
C2442       C  0.82642762  0.87917131  0.54780434    -0.15100
H2443       H  0.79387157  0.88783957  0.51771622     0.11000
H2444       H  0.88231675  0.91500314  0.46577764     0.11000
H2445       H  0.89844135  0.89519262  0.51799535     0.11000
H2446       H  0.81009221  0.86848144  0.57001449     0.11000
C2447       C  0.74631496  0.71733495  0.47318354    -0.15100
C2448       C  0.72491629  0.72835114  0.47307404     0.07000
C2449       C  0.73150663  0.75549503  0.49276475    -0.15100
C2450       C  0.75921037  0.77149293  0.51233535    -0.15100
C2451       C  0.78050261  0.76035047  0.51274141     0.07000
C2452       C  0.77403404  0.73331377  0.49287864    -0.15100
H2453       H  0.74190759  0.69675482  0.45763770     0.11000
H2454       H  0.71546815  0.76467191  0.49268488     0.11000
H2455       H  0.76352738  0.79205082  0.52787172     0.11000
H2456       H  0.79005661  0.72412108  0.49315627     0.11000
C2457       C  0.75010255  0.69586869  0.62808473    -0.15100
C2458       C  0.78201415  0.70451700  0.63192230     0.07000
C2459       C  0.78940594  0.68199333  0.64473364    -0.15100
C2460       C  0.76556690  0.65080369  0.64993352    -0.15100
C2461       C  0.73407460  0.64133895  0.64132994     0.07000
C2462       C  0.72636823  0.66448895  0.63242627    -0.15100
H2463       H  0.74360019  0.71270671  0.61824556     0.11000
H2464       H  0.81366362  0.68795040  0.64829356     0.11000
H2465       H  0.77219824  0.63323448  0.65601906     0.11000
H2466       H  0.70255969  0.65777557  0.62445810     0.11000
C2467       C  0.87942259  0.86069878  0.72861265    -0.15100
C2468       C  0.85421312  0.83783355  0.70777735     0.07000
C2469       C  0.82409455  0.82258076  0.72324634    -0.15100
C2470       C  0.81932689  0.82889951  0.75872144    -0.15100
C2471       C  0.84444832  0.85069548  0.78021462     0.07000
C2472       C  0.87455625  0.86710455  0.76468163    -0.15100
H2473       H  0.90284061  0.87305264  0.71735448     0.11000
H2474       H  0.80390122  0.80526914  0.70802353     0.11000
H2475       H  0.79578904  0.81606524  0.76966731     0.11000
H2476       H  0.89439041  0.88390451  0.78076760     0.11000
C2477       C  0.89924341  0.73482479  0.65013545    -0.15100
C2478       C  0.92079673  0.76610798  0.64049478     0.07000
C2479       C  0.95147293  0.77370017  0.63145696    -0.15100
C2480       C  0.95930339  0.74990794  0.62804004    -0.15100
C2481       C  0.93635195  0.71805052  0.63281535     0.07000
C2482       C  0.90672475  0.71091913  0.64572685    -0.15100
H2483       H  0.87516024  0.72820345  0.65620376     0.11000
H2484       H  0.96818263  0.79730365  0.62263949     0.11000
H2485       H  0.98238981  0.75617284  0.61802543     0.11000
H2486       H  0.88865409  0.68669969  0.64989312     0.11000
C2487       C  0.94480690  0.82503999  0.43990376    -0.15100
C2488       C  0.97450547  0.85238049  0.44299866     0.07000
C2489       C  0.98178847  0.86979619  0.47549734    -0.15100
C2490       C  0.96054161  0.85944721  0.50458043    -0.15100
C2491       C  0.93136047  0.83144374  0.50198504     0.07000
C2492       C  0.92349448  0.81479602  0.46890491    -0.15100
H2493       H  0.93844792  0.81079844  0.41546820     0.11000
H2494       H  0.50453821  0.89065435  0.47913767     0.11000
H2495       H  0.96736267  0.87303372  0.52953178     0.11000
H2496       H  0.90125709  0.79323188  0.46581175     0.11000
loop_ 
_geom_bond_atom_site_label_1 
_geom_bond_atom_site_label_2 
_geom_bond_distance 
_geom_bond_site_symmetry_2 
_ccdc_geom_bond_type 
O1           C16   1.268       .  A
O1           Al9   1.929       .  S
C2           O12   1.267       .  A
C2            O3   1.262       .  A
C2          C569   1.496       .  S
O3           Al5   1.913       .  S
O4            C6   1.255       .  A
O4           Al5   1.869       .  S
Al5          O13   1.864       .  S
Al5          O15   1.912       .  S
Al5          O14   1.776       .  S
C6           O19   1.256       .  A
C6          C579   1.451       .  S
O7           C17   1.266       .  A
O7           Al9   1.920       .  S
O8           C21   1.274       .  A
O8          Al18   1.950       .  S
Al9          O22   1.872       .  S
Al9          O19   1.876       .  S
Al9          O14   1.773       .  S
O10          C17   1.267       .  A
O10         Al18   1.933       .  S
O11          C20   1.270       .  A
O11         Al18   1.966       .  S
O12         Al18   1.934       .  S
O13          C20   1.256       .  A
O14         Al18   1.780       .  S
O15          C16   1.262       .  A
C16         C586   1.487       .  S
C17         C619   1.496       .  S
C20         C596   1.489       .  S
C21          O22   1.257       .  A
C21         C606   1.470       .  S
O23          C38   1.266       .  A
O23         Al31   1.921       .  S
C24          O34   1.268       .  A
C24          O25   1.264       .  A
C24         C516   1.501       .  S
O25         Al27   1.919       .  S
O26          C28   1.253       .  A
O26         Al27   1.862       .  S
Al27         O35   1.867       .  S
Al27         O37   1.924       .  S
Al27         O36   1.780       .  S
C28          O41   1.257       .  A
C28         C526   1.444       .  S
O29          C39   1.263       .  A
O29         Al31   1.913       .  S
O30          C43   1.275       .  A
O30         Al40   1.953       .  S
Al31         O44   1.875       .  S
Al31         O41   1.870       .  S
Al31         O36   1.768       .  S
O32          C39   1.266       .  A
O32         Al40   1.937       .  S
O33          C42   1.270       .  A
O33         Al40   1.966       .  S
O34         Al40   1.937       .  S
O35          C42   1.257       .  A
O36         Al40   1.782       .  S
O37          C38   1.263       .  A
C38         C536   1.489       .  S
C39         C556   1.496       .  S
C42         C599   1.484       .  S
C43          O44   1.259       .  A
C43         C546   1.472       .  S
O45          C60   1.264       .  A
O45         Al53   1.914       .  S
C46          O47   1.265       .  A
C46         O680   1.268       .  A
C46         C496   1.497       .  S
O47        Al673   1.922       .  S
O48          C50   1.255   1_565  A
O48         Al49   1.870   1_565  S
Al49         O57   1.872       .  S
Al49         O59   1.924       .  S
Al49        O671   1.922   1_545  S
Al49         O58   1.785       .  S
C50          O63   1.257       .  A
C50         C509   1.446   1_545  S
O51          C61   1.263       .  A
O51         Al53   1.918       .  S
O52          C65   1.274       .  A
O52         Al62   1.950       .  S
Al53         O66   1.873       .  S
Al53         O63   1.867       .  S
Al53         O58   1.767       .  S
O54          C61   1.265       .  A
O54         Al62   1.936       .  S
O55          C64   1.268       .  A
O55         Al62   1.960       .  S
O56         C670   1.268   1_545  A
O56         Al62   1.927       .  S
O57          C64   1.257       .  A
O58         Al62   1.783       .  S
O59          C60   1.263       .  A
C60         C479   1.487       .  S
C61         C469   1.498       .  S
C64         C486   1.480       .  S
C65          O66   1.259       .  A
C65         C589   1.470       .  S
O67          C82   1.269       .  A
O67         Al75   1.928       .  S
C68          O69   1.260       .  A
C68         O702   1.266   1_545  A
C68         C436   1.494       .  S
O69        Al695   1.910   1_545  S
O70          C72   1.256       .  A
O70         Al71   1.871       .  S
Al71         O79   1.860       .  S
Al71         O81   1.915       .  S
Al71        O693   1.910       .  S
Al71         O80   1.778       .  S
C72          O85   1.256       .  A
C72         C446   1.453       .  S
O73          C83   1.266       .  A
O73         Al75   1.917       .  S
O74          C87   1.274       .  A
O74         Al84   1.953       .  S
Al75         O88   1.875       .  S
Al75         O85   1.882       .  S
Al75         O80   1.773       .  S
O76          C83   1.266       .  A
O76         Al84   1.930       .  S
O77          C86   1.271       .  A
O77         Al84   1.967       .  S
O78         C692   1.266       .  A
O78         Al84   1.934       .  S
O79          C86   1.257       .  A
O80         Al84   1.782       .  S
O81          C82   1.263       .  A
C82         C549   1.488       .  S
C83         C456   1.494       .  S
C86         C489   1.487       .  S
C87          O88   1.257       .  A
C87         C429   1.475       .  S
O89         C104   1.268       .  A
O89         Al97   1.924       .  S
C90          O91   1.262       .  A
C90        O1348   1.265   1_455  A
C90         C396   1.485       .  S
O91       Al1341   1.912   1_455  S
O92          C94   1.257       .  A
O92         Al93   1.883       .  S
Al93        O101   1.862       .  S
Al93        O103   1.917       .  S
Al93       O1339   1.912       .  S
Al93        O102   1.777       .  S
C94         O107   1.256       .  A
C94         C406   1.458       .  S
O95         C105   1.265       .  A
O95         Al97   1.913       .  S
O96         C109   1.273       .  A
O96        Al106   1.948       .  S
Al97        O110   1.879       .  S
Al97        O107   1.878       .  S
Al97        O102   1.768       .  S
O98         C105   1.268       .  A
O98        Al106   1.940       .  S
O99         C108   1.270       .  A
O99        Al106   1.962       .  S
O100       C1338   1.265       .  A
O100       Al106   1.918       .  S
O101        C108   1.256       .  A
O102       Al106   1.784       .  S
O103        C104   1.263       .  A
C104        C609   1.486       .  S
C105        C416   1.495       .  S
C108        C386   1.484       .  S
C109        O110   1.259       .  A
C109        C476   1.472       .  S
O111        C126   1.265       .  A
O111       Al119   1.917       .  S
C112        O113   1.265       .  A
C112       O1370   1.266       .  A
C112        C366   1.492       .  S
O113      Al1363   1.921       .  S
O114        C116   1.255       .  A
O114       Al115   1.876       .  S
Al115       O123   1.869       .  S
Al115       O125   1.929       .  S
Al115      O1361   1.921   1_455  S
Al115       O124   1.786       .  S
C116        O129   1.258       .  A
C116        C376   1.451       .  S
O117        C127   1.264       .  A
O117       Al119   1.917       .  S
O118        C131   1.274       .  A
O118       Al128   1.950       .  S
Al119       O132   1.880       .  S
Al119       O129   1.872       .  S
Al119       O124   1.764       .  S
O120        C127   1.265       .  A
O120       Al128   1.936       .  S
O121        C130   1.268       .  A
O121       Al128   1.956       .  S
O122       C1360   1.266   1_455  A
O122       Al128   1.917       .  S
O123        C130   1.257       .  A
O124       Al128   1.786       .  S
O125        C126   1.264       .  A
C126        C426   1.488       .  S
C127        C356   1.497       .  S
C130        C389   1.476       .  S
C131        O132   1.259       .  A
C131        C539   1.475       .  S
O133        C148   1.259       .  A
O133       Al141   1.881       .  S
C134        O144   1.265       .  A
C134        O135   1.270       .  A
C134        C466   1.499       .  S
O135       Al137   1.937       .  S
O136        C138   1.263       .  A
O136       Al137   1.918       .  S
Al137       O145   1.940       .  S
Al137       O147   1.962       .  S
Al137       O146   1.778       .  S
C138        O151   1.264       .  A
C138        C399   1.487       .  S
O139        C149   1.254       .  A
O139       Al141   1.865       .  S
O140        C153   1.264       .  A
O140       Al150   1.920       .  S
Al141       O154   1.920       .  S
Al141       O151   1.917       .  S
Al141       O146   1.769       .  S
O142        C149   1.256       .  A
O142       Al150   1.872       .  S
O143        C152   1.256       .  A
O143       Al150   1.877       .  S
O144       Al150   1.921       .  S
O145        C152   1.264       .  A
O146       Al150   1.778       .  S
O147        C148   1.277       .  A
C148        C349   1.477       .  S
C149        C576   1.450       .  S
C152        C336   1.464       .  S
C153        O154   1.268       .  A
C153        C326   1.484       .  S
O155        C170   1.252       .  A
O155       Al163   1.835       .  S
C156        O166   1.260       .  A
C156        O157   1.281       .  A
C156        C359   1.486       .  S
O157       Al159   1.977       .  S
O158        C160   1.252       .  A
O158       Al159   1.887       .  S
Al159       O167   1.925       .  S
Al159       O169   1.975       .  S
Al159       O168   1.792       .  S
C160        O173   1.260       .  A
C160        C439   1.493       .  S
O161        C171   1.252       .  A
O161       Al163   1.874       .  S
O162        C175   1.268       .  A
O162       Al172   1.911       .  S
Al163       O176   1.934       .  S
Al163       O173   1.923       .  S
Al163       O168   1.782       .  S
O164        C171   1.250       .  A
O164       Al172   1.860       .  S
O165        C174   1.247       .  A
O165       Al172   1.861       .  S
O166       Al172   1.861       .  S
O167        C174   1.256       .  A
O168       Al172   1.797       .  S
O169        C170   1.276       .  A
C170        C319   1.480       .  S
C171        C529   1.441       .  S
C174        C339   1.481       .  S
C175        O176   1.270       .  A
C175        C306   1.473       .  S
O177        C192   1.252       .  A
O177       Al185   1.833       .  S
C178        O188   1.260       .  A
C178        O803   1.279   1_545  A
C178        C419   1.483       .  S
O179        C802   1.279       .  A
O179       Al181   1.970       .  S
O180        C182   1.253       .  A
O180       Al181   1.894       .  S
Al181       O189   1.929       .  S
Al181       O191   1.973       .  S
Al181       O190   1.796       .  S
C182        O195   1.259       .  A
C182        C566   1.495       .  S
O183        C193   1.252       .  A
O183       Al185   1.873       .  S
O184        C197   1.268       .  A
O184       Al194   1.914       .  S
Al185       O198   1.933       .  S
Al185       O195   1.921       .  S
Al185       O190   1.783       .  S
O186        C193   1.251       .  A
O186       Al194   1.866       .  S
O187        C196   1.248       .  A
O187       Al194   1.861       .  S
O188       Al818   1.861   1_545  S
O189        C196   1.258       .  A
O190       Al194   1.797       .  S
O191        C192   1.276       .  A
C192        C329   1.478       .  S
C193        C506   1.447       .  S
Al194       O812   1.861       .  S
C196        C296   1.484       .  S
C197        O198   1.270       .  A
C197        C289   1.478       .  S
O199        C214   1.261       .  A
O199       Al207   1.889       .  S
C200        O210   1.264       .  A
C200        O825   1.267       .  A
C200        C559   1.495       .  S
O201        C824   1.267   1_545  A
O201       Al203   1.929       .  S
O202        C204   1.265       .  A
O202       Al203   1.928       .  S
Al203       O211   1.950       .  S
Al203       O213   1.948       .  S
Al203       O212   1.779       .  S
C204        O217   1.263       .  A
C204        C369   1.492       .  S
O205        C215   1.258       .  A
O205       Al207   1.879       .  S
O206        C219   1.263       .  A
O206       Al216   1.925       .  S
Al207       O220   1.919       .  S
Al207       O217   1.915       .  S
Al207       O212   1.770       .  S
O208        C215   1.257       .  A
O208       Al216   1.872       .  S
O209        C218   1.257       .  A
O209       Al216   1.874       .  S
O210       Al840   1.921       .  S
O211        C218   1.267       .  A
O212       Al216   1.779       .  S
O213        C214   1.273       .  A
C214        C276   1.476       .  S
C215        C449   1.453       .  S
Al216       O834   1.921   1_545  S
C218        C299   1.466       .  S
C219        O220   1.267       .  A
C219        C316   1.486       .  S
O221        C236   1.254       .  A
O221       Al229   1.844       .  S
C222        O232   1.259       .  A
C222       O1471   1.277   1_455  A
C222        C459   1.483       .  S
O223       C1470   1.277       .  A
O223       Al225   1.966       .  S
O224        C226   1.254       .  A
O224       Al225   1.896       .  S
Al225       O233   1.925       .  S
Al225       O235   1.966       .  S
Al225       O234   1.798       .  S
C226        O239   1.261       .  A
C226        C519   1.502       .  S
O227        C237   1.255       .  A
O227       Al229   1.883       .  S
O228        C241   1.266       .  A
O228       Al238   1.909       .  S
Al229       O242   1.934       .  S
Al229       O239   1.932       .  S
Al229       O234   1.789       .  S
O230        C237   1.252       .  A
O230       Al238   1.864       .  S
O231        C240   1.249       .  A
O231       Al238   1.865       .  S
O232      Al1486   1.861   1_455  S
O233        C240   1.257       .  A
O234       Al238   1.797       .  S
O235        C236   1.274       .  A
C236        C309   1.478       .  S
C237        C379   1.451       .  S
Al238      O1480   1.861       .  S
C240        C266   1.483       .  S
C241        O242   1.269       .  A
C241        C279   1.477       .  S
O243        C258   1.261       .  A
O243       Al251   1.888       .  S
C244        O254   1.264       .  A
C244       O1493   1.268       .  A
C244        C616   1.495       .  S
O245       C1492   1.268   1_455  A
O245       Al247   1.929       .  S
O246        C248   1.263       .  A
O246       Al247   1.920       .  S
Al247       O255   1.943       .  S
Al247       O257   1.950       .  S
Al247       O256   1.784       .  S
C248        O261   1.265       .  A
C248        C499   1.497       .  S
O249        C259   1.257       .  A
O249       Al251   1.878       .  S
O250        C263   1.262       .  A
O250       Al260   1.913       .  S
Al251       O264   1.931       .  S
Al251       O261   1.930       .  S
Al251       O256   1.774       .  S
O252        C259   1.258       .  A
O252       Al260   1.878       .  S
O253        C262   1.257       .  A
O253       Al260   1.881       .  S
O254      Al1508   1.921       .  S
O255        C262   1.264       .  A
O256       Al260   1.780       .  S
O257        C258   1.274       .  A
C258        C286   1.477       .  S
C259        C409   1.458       .  S
Al260      O1502   1.921   1_455  S
C262        C269   1.467       .  S
C263        O264   1.268       .  A
C263        C346   1.492       .  S
C265        C266   1.406       .  A
C265        C270   1.407       .  A
C265        H271   1.083       .  S
C266       C1515   1.409       .  A
C267        C268   1.391       .  A
C267       C1514   1.409   1_455  A
C267        H272   1.083       .  S
C268        C269   1.396       .  A
C268        H273   1.084       .  S
C269       C1518   1.406   1_455  A
C270       C1517   1.406       .  A
C270        H274   1.083       .  S
C275        C276   1.408       .  A
C275        C280   1.400       .  A
C275        H281   1.084       .  S
C276        C277   1.403       .  A
C277        C278   1.406       .  A
C277        H282   1.083       .  S
C278        C279   1.408       .  A
C278        H283   1.084       .  S
C279        C280   1.400       .  A
C280        H284   1.084       .  S
C285        C286   1.408       .  A
C285        C290   1.398       .  A
C285        H291   1.084       .  S
C286        C287   1.404       .  A
C287        C288   1.408       .  A
C287        H292   1.083       .  S
C288        C289   1.408       .  A
C288        H293   1.083       .  S
C289        C290   1.400       .  A
C290        H294   1.083       .  S
C295        C296   1.406       .  A
C295        C924   1.407       .  A
C295        H925   1.083       .  S
C296        C297   1.410       .  A
C297        C298   1.390       .  A
C297        H302   1.083       .  S
C298        C923   1.395       .  A
C298        H303   1.084       .  S
C299        C300   1.406   1_545  A
C299        C922   1.395       .  A
C300        C919   1.407       .  A
C300        H304   1.083       .  S
H301        C919   1.083       .  S
C305        C306   1.408       .  A
C305        C310   1.405       .  A
C305        H311   1.084       .  S
C306        C307   1.398       .  A
C307        C308   1.398       .  A
C307        H312   1.083       .  S
C308        C309   1.410       .  A
C308        H313   1.084       .  S
C309        C310   1.403       .  A
C310        H314   1.083       .  S
C315        C316   1.412       .  A
C315        C320   1.407       .  A
C315        H321   1.083       .  S
C316        C317   1.400       .  A
C317        C318   1.398       .  A
C317        H322   1.083       .  S
C318        C319   1.411       .  A
C318        H323   1.084       .  S
C319        C320   1.402       .  A
C320        H324   1.083       .  S
C325        C326   1.400       .  A
C325        C330   1.397       .  A
C325        H331   1.083       .  S
C326        C327   1.411       .  A
C327        C328   1.406       .  A
C327        H332   1.083       .  S
C328        C329   1.402       .  A
C328        H333   1.083       .  S
C329        C330   1.411       .  A
C330        H334   1.084       .  S
C335        C336   1.406       .  A
C335        C340   1.406       .  A
C335        H341   1.083       .  S
C336        C337   1.395       .  A
C337        C338   1.390       .  A
C337        H342   1.084       .  S
C338        C339   1.409       .  A
C338        H343   1.083       .  S
C339        C340   1.405       .  A
C340        H344   1.083       .  S
C345        C346   1.402       .  A
C345        C350   1.403       .  A
C345        H351   1.083       .  S
C346        C347   1.413       .  A
C347        C348   1.406       .  A
C347        H352   1.083       .  S
C348        C349   1.401       .  A
C348        H353   1.083       .  S
C349        C350   1.410       .  A
C350        H354   1.082       .  S
C355        C356   1.406   1_554  A
C355        C360   1.403       .  A
C355        H361   1.083       .  S
C356        C357   1.411       .  A
C357        C358   1.409   1_556  A
C357        H362   1.083       .  S
C358        C359   1.405       .  A
C358        H363   1.084       .  S
C359        C360   1.407       .  A
C360        H364   1.083       .  S
C365        C366   1.409       .  A
C365        C370   1.405       .  A
C365        H371   1.083       .  S
C366        C367   1.406       .  A
C367        C368   1.402   1_556  A
C367       H1620   1.083       .  S
C368        C369   1.408       .  A
C368        H373   1.083       .  S
C369        C370   1.407   1_554  A
C370        H374   1.083       .  S
H372       C1615   1.083   1_455  S
C375        C376   1.403   1_655  A
C375       C1628   1.393       .  A
C375       H1629   1.083       .  S
C376        C377   1.399   1_556  A
C377        C378   1.378       .  A
C377        H382   1.084       .  S
C378       C1627   1.401   1_455  A
C378        H383   1.084       .  S
C379        C380   1.401   1_554  A
C379       C1626   1.401       .  A
C380       C1623   1.393       .  A
C380        H384   1.083       .  S
H381       C1623   1.083       .  S
C385        C390   1.410   1_655  A
C385       C1634   1.408       .  A
C385        H391   1.083       .  S
C386        C387   1.406       .  A
C386       C1633   1.408       .  A
C387        C388   1.388       .  A
C387        H392   1.083       .  S
C388       C1637   1.399       .  A
C388        H393   1.084       .  S
C389        C390   1.408       .  A
C389       C1636   1.399       .  A
C390        H394   1.083   1_455  S
C395        C396   1.409       .  A
C395        C400   1.401       .  A
C395        H401   1.083       .  S
C396        C397   1.405       .  A
C397        C398   1.400       .  A
C397        H402   1.083       .  S
C398        C399   1.409       .  A
C398        H403   1.083       .  S
C399        C400   1.404       .  A
C400        H404   1.083       .  S
C405        C406   1.405       .  A
C405       C1658   1.386       .  A
C405        H411   1.083       .  S
C406       C1655   1.400       .  A
C407        C408   1.388       .  A
C407       C1654   1.400   1_455  A
C407        H412   1.083       .  S
C408        C409   1.406       .  A
C408        H413   1.083       .  S
C409        C410   1.399   1_455  A
C410       C1653   1.386       .  A
C410       H1662   1.083       .  S
H414       C1658   1.083       .  S
C415        C416   1.406       .  A
C415        C420   1.401       .  A
C415        H421   1.083       .  S
C416        C417   1.411       .  A
C417        C418   1.408       .  A
C417        H422   1.083       .  S
C418        C419   1.405       .  A
C418        H423   1.084   1_545  S
C419        C420   1.406       .  A
C420        H424   1.084       .  S
C425        C426   1.402       .  A
C425        C430   1.400       .  A
C425        H431   1.083       .  S
C426        C427   1.410       .  A
C427        C428   1.407       .  A
C427        H432   1.083       .  S
C428        C429   1.404       .  A
C428        H433   1.083       .  S
C429        C430   1.408       .  A
C430        H434   1.084       .  S
C435        C436   1.406       .  A
C435        C440   1.406   1_556  A
C435        H441   1.083   1_545  S
C436        C437   1.411       .  A
C437        C438   1.402       .  A
C437        H442   1.083       .  S
C438        C439   1.404   1_556  A
C438        H443   1.083       .  S
C439        C440   1.411       .  A
C440        H444   1.083       .  S
C445        C446   1.404       .  A
C445        C450   1.386   1_556  A
C445        H451   1.083       .  S
C446       C1071   1.399       .  A
C447        C448   1.383   1_556  A
C447       C1070   1.399   1_545  A
C447        H452   1.083       .  S
C448        C449   1.403       .  A
C448        H453   1.083       .  S
C449       C1074   1.400   1_545  A
C450       C1073   1.400       .  A
C450        H454   1.083       .  S
C455        C456   1.405   1_554  A
C455        C460   1.401       .  A
C455        H461   1.083       .  S
C456        C457   1.412       .  A
C457        C458   1.406   1_556  A
C457        H462   1.083       .  S
C458        C459   1.404       .  A
C458        H463   1.084       .  S
C459        C460   1.407       .  A
C460        H464   1.084       .  S
C465        C466   1.408       .  A
C465        C470   1.408       .  A
C465        H471   1.083       .  S
C466        C467   1.411       .  A
C467        C468   1.405       .  A
C467        H472   1.083       .  S
C468        C469   1.406       .  A
C468        H473   1.083       .  S
C469        C470   1.410       .  A
C470        H474   1.083       .  S
C475        C476   1.403       .  A
C475        C480   1.406       .  A
C475        H481   1.083       .  S
C476        C477   1.407       .  A
C477        C478   1.398       .  A
C477        H482   1.083       .  S
C478        C479   1.402       .  A
C478        H483   1.083       .  S
C479        C480   1.410       .  A
C480        H484   1.083       .  S
C485        C486   1.408   1_565  A
C485       C1114   1.411       .  A
C485        H491   1.083       .  S
C486       C1111   1.400       .  A
C487        C488   1.389       .  A
C487       C1110   1.400       .  A
C487       H1116   1.084       .  S
C488        C489   1.407       .  A
C488        H493   1.083       .  S
C489        C490   1.408       .  A
C490       C1109   1.411       .  A
C490        H494   1.083       .  S
H492       C1111   1.084       .  S
C495        C496   1.406       .  A
C495        C500   1.404       .  A
C495        H501   1.083       .  S
C496        C497   1.411       .  A
C497        C498   1.408       .  A
C497        H502   1.083       .  S
C498        C499   1.406       .  A
C498        H503   1.083       .  S
C499        C500   1.410       .  A
C500        H504   1.083       .  S
C505        C506   1.401       .  A
C505        C510   1.389       .  A
C505        H511   1.083       .  S
C506       C1131   1.400       .  A
C507        C508   1.378       .  A
C507       C1130   1.400   1_545  A
C507        H512   1.084       .  S
C508        C509   1.399   1_545  A
C508        H513   1.084       .  S
C509       C1134   1.402       .  A
C510       C1133   1.402       .  A
C510        H514   1.083       .  S
C515        C516   1.407       .  A
C515        C520   1.408   1_556  A
C515        H521   1.083       .  S
C516        C517   1.412       .  A
C517        C518   1.407       .  A
C517        H522   1.083       .  S
C518        C519   1.407   1_556  A
C518        H523   1.083       .  S
C519        C520   1.411       .  A
C520        H524   1.083       .  S
C525        C526   1.402       .  A
C525        C530   1.387       .  A
C525        H531   1.083       .  S
C526        C527   1.399   1_556  A
C527        C528   1.378       .  A
C527        H532   1.084       .  S
C528        C529   1.400       .  A
C528        H533   1.084       .  S
C529        C530   1.399   1_554  A
C530        H534   1.083       .  S
C535        C536   1.412       .  A
C535        C540   1.406       .  A
C535        H541   1.083       .  S
C536        C537   1.402       .  A
C537        C538   1.399       .  A
C537        H542   1.083       .  S
C538        C539   1.408       .  A
C538        H543   1.083       .  S
C539        C540   1.402       .  A
C540        H544   1.083       .  S
C545        C546   1.409       .  A
C545        C550   1.401       .  A
C545        H551   1.084       .  S
C546        C547   1.401       .  A
C547        C548   1.404       .  A
C547        H552   1.083       .  S
C548        C549   1.412       .  A
C548        H553   1.083       .  S
C549        C550   1.402       .  A
C550        H554   1.083       .  S
C555        C556   1.409       .  A
C555        C560   1.406   1_556  A
C555        H561   1.083       .  S
C556        C557   1.406   1_556  A
C557        C558   1.403       .  A
C557        H562   1.083       .  S
C558        C559   1.409       .  A
C558        H563   1.083       .  S
C559        C560   1.407       .  A
C560        H564   1.083       .  S
C565        C566   1.405       .  A
C565        C570   1.404       .  A
C565        H571   1.083       .  S
C566        C567   1.410       .  A
C567        C568   1.406       .  A
C567        H572   1.083       .  S
C568        C569   1.407       .  A
C568        H573   1.083       .  S
C569        C570   1.411       .  A
C570        H574   1.083       .  S
C575        C576   1.399       .  A
C575        C580   1.385       .  A
C575        H581   1.083       .  S
C576        C577   1.403       .  A
C577        C578   1.382       .  A
C577        H582   1.083       .  S
C578        C579   1.399       .  A
C578        H583   1.083       .  S
C579        C580   1.404       .  A
C580        H584   1.083       .  S
C585        C586   1.411       .  A
C585        C590   1.402       .  A
C585        H591   1.083       .  S
C586        C587   1.402       .  A
C587        C588   1.401       .  A
C587        H592   1.083       .  S
C588        C589   1.409       .  A
C588        H593   1.084       .  S
C589        C590   1.400       .  A
C590        H594   1.083       .  S
C595        C596   1.409       .  A
C595        C600   1.412       .  A
C595        H601   1.083       .  S
C596        C597   1.406       .  A
C597        C598   1.389       .  A
C597        H602   1.083       .  S
C598        C599   1.402       .  A
C598        H603   1.084       .  S
C599        C600   1.408       .  A
C600        H604   1.083       .  S
C605        C606   1.409       .  A
C605        C610   1.401       .  A
C605        H611   1.084       .  S
C606        C607   1.402       .  A
C607        C608   1.403       .  A
C607        H612   1.083       .  S
C608        C609   1.410       .  A
C608        H613   1.083       .  S
C609        C610   1.402       .  A
C610        H614   1.083       .  S
C615        C616   1.410       .  A
C615        C620   1.405       .  A
C615        H621   1.083       .  S
C616        C617   1.406       .  A
C617        C618   1.405       .  A
C617       H1870   1.083       .  S
C618        C619   1.410       .  A
C618        H623   1.083       .  S
C619        C620   1.406       .  A
C620        H624   1.083       .  S
H622       C1865   1.083   1_455  S
O625        C640   1.268       .  A
O625       Al633   1.929       .  S
C626        O636   1.267       .  A
C626        O627   1.262       .  A
C626       C1193   1.496       .  S
O627       Al629   1.913       .  S
O628        C630   1.255       .  A
O628       Al629   1.869       .  S
Al629       O637   1.864       .  S
Al629       O639   1.912       .  S
Al629       O638   1.776       .  S
C630        O643   1.256       .  A
C630       C1203   1.451       .  S
O631        C641   1.266       .  A
O631       Al633   1.920       .  S
O632        C645   1.274       .  A
O632       Al642   1.950       .  S
Al633       O646   1.872       .  S
Al633       O643   1.876       .  S
Al633       O638   1.773       .  S
O634        C641   1.267       .  A
O634       Al642   1.933       .  S
O635        C644   1.270       .  A
O635       Al642   1.966       .  S
O636       Al642   1.934       .  S
O637        C644   1.256       .  A
O638       Al642   1.780       .  S
O639        C640   1.262       .  A
C640       C1210   1.487       .  S
C641       C1243   1.496       .  S
C644       C1220   1.489       .  S
C645        O646   1.257       .  A
C645       C1230   1.470       .  S
O647        C662   1.266       .  A
O647       Al655   1.921       .  S
C648        O658   1.268       .  A
C648        O649   1.264       .  A
C648       C1140   1.501       .  S
O649       Al651   1.919       .  S
O650        C652   1.253       .  A
O650       Al651   1.862       .  S
Al651       O659   1.867       .  S
Al651       O661   1.924       .  S
Al651       O660   1.780       .  S
C652        O665   1.257       .  A
C652       C1150   1.444       .  S
O653        C663   1.263       .  A
O653       Al655   1.913       .  S
O654        C667   1.275       .  A
O654       Al664   1.953       .  S
Al655       O668   1.875       .  S
Al655       O665   1.870       .  S
Al655       O660   1.768       .  S
O656        C663   1.266       .  A
O656       Al664   1.937       .  S
O657        C666   1.270       .  A
O657       Al664   1.966       .  S
O658       Al664   1.937       .  S
O659        C666   1.257       .  A
O660       Al664   1.782       .  S
O661        C662   1.263       .  A
C662       C1160   1.489       .  S
C663       C1180   1.496       .  S
C666       C1223   1.484       .  S
C667        O668   1.259       .  A
C667       C1170   1.472       .  S
O669        C684   1.264       .  A
O669       Al677   1.914       .  S
C670        O671   1.265       .  A
C670       C1120   1.497       .  S
O672        C674   1.255       .  A
O672       Al673   1.870       .  S
Al673       O681   1.872       .  S
Al673       O683   1.924       .  S
Al673       O682   1.785       .  S
C674        O687   1.257       .  A
C674       C1133   1.446       .  S
O675        C685   1.263       .  A
O675       Al677   1.918       .  S
O676        C689   1.274       .  A
O676       Al686   1.950       .  S
Al677       O690   1.873       .  S
Al677       O687   1.867       .  S
Al677       O682   1.767       .  S
O678        C685   1.265       .  A
O678       Al686   1.936       .  S
O679        C688   1.268       .  A
O679       Al686   1.960       .  S
O680       Al686   1.927       .  S
O681        C688   1.257       .  A
O682       Al686   1.783       .  S
O683        C684   1.263       .  A
C684       C1103   1.487       .  S
C685       C1093   1.498       .  S
C688       C1110   1.480       .  S
C689        O690   1.259       .  A
C689       C1213   1.470       .  S
O691        C706   1.269       .  A
O691       Al699   1.928       .  S
C692        O693   1.260       .  A
C692       C1060   1.494       .  S
O694        C696   1.256       .  A
O694       Al695   1.871       .  S
Al695       O703   1.860       .  S
Al695       O705   1.915       .  S
Al695       O704   1.778       .  S
C696        O709   1.256       .  A
C696       C1070   1.453       .  S
O697        C707   1.266       .  A
O697       Al699   1.917       .  S
O698        C711   1.274       .  A
O698       Al708   1.953       .  S
Al699       O712   1.875       .  S
Al699       O709   1.882       .  S
Al699       O704   1.773       .  S
O700        C707   1.266       .  A
O700       Al708   1.930       .  S
O701        C710   1.271       .  A
O701       Al708   1.967       .  S
O702       Al708   1.934       .  S
O703        C710   1.257       .  A
O704       Al708   1.782       .  S
O705        C706   1.263       .  A
C706       C1173   1.488       .  S
C707       C1080   1.494       .  S
C710       C1113   1.487       .  S
C711        O712   1.257       .  A
C711       C1053   1.475       .  S
O713        C728   1.268       .  A
O713       Al721   1.924       .  S
C714       O1972   1.265   1_455  A
C714        O715   1.262       .  A
C714       C1020   1.485       .  S
O715      Al1965   1.912   1_455  S
O716        C718   1.257       .  A
O716       Al717   1.883       .  S
Al717      O1963   1.912       .  S
Al717       O725   1.862       .  S
Al717       O727   1.917       .  S
Al717       O726   1.777       .  S
C718        O731   1.256       .  A
C718       C1030   1.458       .  S
O719        C729   1.265       .  A
O719       Al721   1.913       .  S
O720        C733   1.273       .  A
O720       Al730   1.948       .  S
Al721       O734   1.879       .  S
Al721       O731   1.878       .  S
Al721       O726   1.768       .  S
O722        C729   1.268       .  A
O722       Al730   1.940       .  S
O723        C732   1.270       .  A
O723       Al730   1.962       .  S
O724       C1962   1.265       .  A
O724       Al730   1.918       .  S
O725        C732   1.256       .  A
O726       Al730   1.784       .  S
O727        C728   1.263       .  A
C728       C1233   1.486       .  S
C729       C1040   1.495       .  S
C732       C1010   1.484       .  S
C733        O734   1.259       .  A
C733       C1100   1.472       .  S
O735        C750   1.265       .  A
O735       Al743   1.917       .  S
C736       O1994   1.266       .  A
C736        O737   1.265       .  A
C736        C990   1.492       .  S
O737      Al1987   1.921       .  S
O738        C740   1.255       .  A
O738       Al739   1.876       .  S
Al739      O1985   1.921   1_455  S
Al739       O747   1.869       .  S
Al739       O749   1.929       .  S
Al739       O748   1.786       .  S
C740        O753   1.258       .  A
C740       C1000   1.451       .  S
O741        C751   1.264       .  A
O741       Al743   1.917       .  S
O742        C755   1.274       .  A
O742       Al752   1.950       .  S
Al743       O756   1.880       .  S
Al743       O753   1.872       .  S
Al743       O748   1.764       .  S
O744        C751   1.265       .  A
O744       Al752   1.936       .  S
O745        C754   1.268       .  A
O745       Al752   1.956       .  S
O746       C1984   1.266   1_455  A
O746       Al752   1.917       .  S
O747        C754   1.257       .  A
O748       Al752   1.786       .  S
O749        C750   1.264       .  A
C750       C1050   1.488       .  S
C751        C980   1.497       .  S
C754       C1013   1.476       .  S
C755        O756   1.259       .  A
C755       C1163   1.475       .  S
O757        C772   1.259       .  A
O757       Al765   1.881       .  S
C758        O768   1.265       .  A
C758        O759   1.270       .  A
C758       C1090   1.499       .  S
O759       Al761   1.937       .  S
O760        C762   1.263       .  A
O760       Al761   1.918       .  S
Al761       O769   1.940       .  S
Al761       O771   1.962       .  S
Al761       O770   1.778       .  S
C762        O775   1.264       .  A
C762       C1023   1.487       .  S
O763        C773   1.254       .  A
O763       Al765   1.865       .  S
O764        C777   1.264       .  A
O764       Al774   1.920       .  S
Al765       O778   1.920       .  S
Al765       O775   1.917       .  S
Al765       O770   1.769       .  S
O766        C773   1.256       .  A
O766       Al774   1.872       .  S
O767        C776   1.256       .  A
O767       Al774   1.877       .  S
O768       Al774   1.921       .  S
O769        C776   1.264       .  A
O770       Al774   1.778       .  S
O771        C772   1.277       .  A
C772        C973   1.477       .  S
C773       C1200   1.450       .  S
C776        C960   1.464       .  S
C777        O778   1.268       .  A
C777        C950   1.484       .  S
O779        C794   1.252       .  A
O779       Al787   1.835       .  S
C780        O790   1.260       .  A
C780        O781   1.281       .  A
C780        C983   1.486       .  S
O781       Al783   1.977       .  S
O782        C784   1.252       .  A
O782       Al783   1.887       .  S
Al783       O791   1.925       .  S
Al783       O793   1.975       .  S
Al783       O792   1.792       .  S
C784        O797   1.260       .  A
C784       C1063   1.493       .  S
O785        C795   1.252       .  A
O785       Al787   1.873       .  S
O786        C799   1.268       .  A
O786       Al796   1.911       .  S
Al787       O800   1.934       .  S
Al787       O797   1.923       .  S
Al787       O792   1.782       .  S
O788        C795   1.250       .  A
O788       Al796   1.860       .  S
O789        C798   1.247       .  A
O789       Al796   1.861       .  S
O790       Al796   1.861       .  S
O791        C798   1.256       .  A
O792       Al796   1.797       .  S
O793        C794   1.276       .  A
C794        C943   1.480       .  S
C795       C1153   1.441       .  S
C798        C963   1.481       .  S
C799        O800   1.270       .  A
C799        C930   1.473       .  S
O801        C816   1.252       .  A
O801       Al809   1.833       .  S
C802        O812   1.260       .  A
C802       C1043   1.483       .  S
O803       Al805   1.970       .  S
O804        C806   1.253       .  A
O804       Al805   1.894       .  S
Al805       O813   1.929       .  S
Al805       O815   1.973       .  S
Al805       O814   1.796       .  S
C806        O819   1.259       .  A
C806       C1190   1.495       .  S
O807        C817   1.252       .  A
O807       Al809   1.873       .  S
O808        C821   1.268       .  A
O808       Al818   1.914       .  S
Al809       O822   1.933       .  S
Al809       O819   1.921       .  S
Al809       O814   1.783       .  S
O810        C817   1.251       .  A
O810       Al818   1.866       .  S
O811        C820   1.248       .  A
O811       Al818   1.861       .  S
O813        C820   1.258       .  A
O814       Al818   1.797       .  S
O815        C816   1.276       .  A
C816        C953   1.478       .  S
C817       C1130   1.447       .  S
C820        C920   1.484       .  S
C821        O822   1.270       .  A
C821        C913   1.478       .  S
O823        C838   1.261       .  A
O823       Al831   1.889       .  S
C824        O834   1.264       .  A
C824       C1183   1.495       .  S
O825       Al827   1.929       .  S
O826        C828   1.265       .  A
O826       Al827   1.928       .  S
Al827       O835   1.950       .  S
Al827       O837   1.948       .  S
Al827       O836   1.779       .  S
C828        O841   1.263       .  A
C828        C993   1.492       .  S
O829        C839   1.258       .  A
O829       Al831   1.879       .  S
O830        C843   1.263       .  A
O830       Al840   1.925       .  S
Al831       O844   1.919       .  S
Al831       O841   1.915       .  S
Al831       O836   1.770       .  S
O832        C839   1.257       .  A
O832       Al840   1.872       .  S
O833        C842   1.257       .  A
O833       Al840   1.874       .  S
O835        C842   1.267       .  A
O836       Al840   1.779       .  S
O837        C838   1.273       .  A
C838        C900   1.476       .  S
C839       C1073   1.453       .  S
C842        C923   1.466       .  S
C843        O844   1.267       .  A
C843        C940   1.486       .  S
O845        C860   1.254       .  A
O845       Al853   1.844       .  S
C846        O856   1.259       .  A
C846       O2095   1.277   1_455  A
C846       C1083   1.483       .  S
O847       C2094   1.277       .  A
O847       Al849   1.966       .  S
O848        C850   1.254       .  A
O848       Al849   1.896       .  S
Al849       O857   1.925       .  S
Al849       O859   1.966       .  S
Al849       O858   1.798       .  S
C850        O863   1.261       .  A
C850       C1143   1.502       .  S
O851        C861   1.255       .  A
O851       Al853   1.883       .  S
O852        C865   1.266       .  A
O852       Al862   1.909       .  S
Al853       O866   1.934       .  S
Al853       O863   1.932       .  S
Al853       O858   1.789       .  S
O854        C861   1.252       .  A
O854       Al862   1.864       .  S
O855        C864   1.249       .  A
O855       Al862   1.865       .  S
O856      Al2110   1.861   1_455  S
O857        C864   1.257       .  A
O858       Al862   1.797       .  S
O859        C860   1.274       .  A
C860        C933   1.478       .  S
C861       C1003   1.451       .  S
Al862      O2104   1.861       .  S
C864        C890   1.483       .  S
C865        O866   1.269       .  A
C865        C903   1.477       .  S
O867        C882   1.261       .  A
O867       Al875   1.888       .  S
C868        O878   1.264       .  A
C868       O2117   1.268       .  A
C868       C1240   1.495       .  S
O869       C2116   1.268   1_455  A
O869       Al871   1.929       .  S
O870        C872   1.263       .  A
O870       Al871   1.920       .  S
Al871       O879   1.943       .  S
Al871       O881   1.950       .  S
Al871       O880   1.784       .  S
C872        O885   1.265       .  A
C872       C1123   1.497       .  S
O873        C883   1.257       .  A
O873       Al875   1.878       .  S
O874        C887   1.262       .  A
O874       Al884   1.913       .  S
Al875       O888   1.931       .  S
Al875       O885   1.930       .  S
Al875       O880   1.774       .  S
O876        C883   1.258       .  A
O876       Al884   1.878       .  S
O877        C886   1.257       .  A
O877       Al884   1.881       .  S
O878      Al2132   1.921       .  S
O879        C886   1.264       .  A
O880       Al884   1.780       .  S
O881        C882   1.274       .  A
C882        C910   1.477       .  S
C883       C1033   1.458       .  S
Al884      O2126   1.921   1_455  S
C886        C893   1.467       .  S
C887        O888   1.268       .  A
C887        C970   1.492       .  S
C889        C890   1.406       .  A
C889        C894   1.407       .  A
C889        H895   1.083       .  S
C890       C2139   1.409       .  A
C891       C2138   1.409   1_455  A
C891        C892   1.391       .  A
C891        H896   1.083       .  S
C892        C893   1.396       .  A
C892        H897   1.084       .  S
C893       C2142   1.406   1_455  A
C894       C2141   1.406       .  A
C894        H898   1.083       .  S
C899        C900   1.408       .  A
C899        C904   1.400       .  A
C899        H905   1.084       .  S
C900        C901   1.403       .  A
C901        C902   1.406       .  A
C901        H906   1.083       .  S
C902        C903   1.408       .  A
C902        H907   1.084       .  S
C903        C904   1.400       .  A
C904        H908   1.084       .  S
C909        C910   1.408       .  A
C909        C914   1.398       .  A
C909        H915   1.084       .  S
C910        C911   1.404       .  A
C911        C912   1.408       .  A
C911        H916   1.083       .  S
C912        C913   1.408       .  A
C912        H917   1.083       .  S
C913        C914   1.400       .  A
C914        H918   1.083       .  S
C919        C920   1.406       .  A
C920        C921   1.410   1_565  A
C921        C922   1.390       .  A
C921        H926   1.083       .  S
C922        H927   1.084       .  S
C923        C924   1.406       .  A
C924        H928   1.083       .  S
C929        C930   1.408       .  A
C929        C934   1.405       .  A
C929        H935   1.084       .  S
C930        C931   1.398       .  A
C931        C932   1.398       .  A
C931        H936   1.083       .  S
C932        C933   1.410       .  A
C932        H937   1.084       .  S
C933        C934   1.403       .  A
C934        H938   1.083       .  S
C939        C940   1.412       .  A
C939        C944   1.407       .  A
C939        H945   1.083       .  S
C940        C941   1.400       .  A
C941        C942   1.398       .  A
C941        H946   1.083       .  S
C942        C943   1.411       .  A
C942        H947   1.084       .  S
C943        C944   1.402       .  A
C944        H948   1.083       .  S
C949        C950   1.400       .  A
C949        C954   1.397       .  A
C949        H955   1.083       .  S
C950        C951   1.411       .  A
C951        C952   1.406       .  A
C951        H956   1.083       .  S
C952        C953   1.402       .  A
C952        H957   1.083       .  S
C953        C954   1.411       .  A
C954        H958   1.084       .  S
C959        C960   1.406       .  A
C959        C964   1.406       .  A
C959        H965   1.083       .  S
C960        C961   1.395       .  A
C961        C962   1.390       .  A
C961        H966   1.084       .  S
C962        C963   1.409       .  A
C962        H967   1.083       .  S
C963        C964   1.405       .  A
C964        H968   1.083       .  S
C969        C970   1.402       .  A
C969        C974   1.403       .  A
C969        H975   1.083       .  S
C970        C971   1.413       .  A
C971        C972   1.406       .  A
C971        H976   1.083       .  S
C972        C973   1.401       .  A
C972        H977   1.083       .  S
C973        C974   1.410       .  A
C974        H978   1.082       .  S
C979        C980   1.406   1_554  A
C979        C984   1.403       .  A
C979        H985   1.083       .  S
C980        C981   1.411       .  A
C981        C982   1.409   1_556  A
C981        H986   1.083       .  S
C982        C983   1.405       .  A
C982        H987   1.084       .  S
C983        C984   1.407       .  A
C984        H988   1.083       .  S
C989        C990   1.409       .  A
C989        C994   1.405       .  A
C989        H995   1.083       .  S
C990        C991   1.406       .  A
C991        C992   1.402   1_556  A
C991       H2244   1.083       .  S
C992        C993   1.408       .  A
C992        H997   1.083       .  S
C993        C994   1.407   1_554  A
C994        H998   1.083       .  S
H996       C2239   1.083   1_455  S
C999       C1000   1.403   1_655  A
C999       C2252   1.393       .  A
C999       H2253   1.083       .  S
C1000      C1001   1.399   1_556  A
C1001      C1002   1.378       .  A
C1001      H1006   1.084       .  S
C1002      C2251   1.401   1_455  A
C1002      H1007   1.084       .  S
C1003      C2250   1.401       .  A
C1003      C1004   1.401   1_554  A
C1004      C2247   1.393       .  A
C1004      H1008   1.083       .  S
H1005      C2247   1.083       .  S
C1009      C2258   1.408       .  A
C1009      C1014   1.410   1_655  A
C1009      H1015   1.083       .  S
C1010      C2257   1.408       .  A
C1010      C1011   1.406       .  A
C1011      C1012   1.388       .  A
C1011      H1016   1.083       .  S
C1012      C2261   1.399       .  A
C1012      H1017   1.084       .  S
C1013      C2260   1.399       .  A
C1013      C1014   1.408       .  A
C1014      H1018   1.083   1_455  S
C1019      C1020   1.409       .  A
C1019      C1024   1.401       .  A
C1019      H1025   1.083       .  S
C1020      C1021   1.405       .  A
C1021      C1022   1.400       .  A
C1021      H1026   1.083       .  S
C1022      C1023   1.409       .  A
C1022      H1027   1.083       .  S
C1023      C1024   1.404       .  A
C1024      H1028   1.083       .  S
C1029      C1030   1.405       .  A
C1029      C2282   1.386       .  A
C1029      H1035   1.083       .  S
C1030      C2279   1.400       .  A
C1031      C2278   1.400   1_455  A
C1031      C1032   1.388       .  A
C1031      H1036   1.083       .  S
C1032      C1033   1.406       .  A
C1032      H1037   1.083       .  S
C1033      C1034   1.399   1_455  A
C1034      C2277   1.386       .  A
C1034      H2286   1.083       .  S
H1038      C2282   1.083       .  S
C1039      C1040   1.406       .  A
C1039      C1044   1.401       .  A
C1039      H1045   1.083       .  S
C1040      C1041   1.411       .  A
C1041      C1042   1.408       .  A
C1041      H1046   1.083       .  S
C1042      C1043   1.405       .  A
C1042      H1047   1.084       .  S
C1043      C1044   1.406       .  A
C1044      H1048   1.084       .  S
C1049      C1050   1.402       .  A
C1049      C1054   1.400       .  A
C1049      H1055   1.083       .  S
C1050      C1051   1.410       .  A
C1051      C1052   1.407       .  A
C1051      H1056   1.083       .  S
C1052      C1053   1.404       .  A
C1052      H1057   1.083       .  S
C1053      C1054   1.408       .  A
C1054      H1058   1.084       .  S
C1059      C1060   1.406       .  A
C1059      C1064   1.406   1_556  A
C1059      H1065   1.083       .  S
C1060      C1061   1.411       .  A
C1061      C1062   1.402       .  A
C1061      H1066   1.083       .  S
C1062      C1063   1.404   1_556  A
C1062      H1067   1.083       .  S
C1063      C1064   1.411       .  A
C1064      H1068   1.083       .  S
C1069      C1070   1.404       .  A
C1069      C1074   1.386   1_556  A
C1069      H1075   1.083       .  S
C1071      C1072   1.383   1_556  A
C1071      H1076   1.083       .  S
C1072      C1073   1.403       .  A
C1072      H1077   1.083       .  S
C1074      H1078   1.083       .  S
C1079      C1080   1.405   1_554  A
C1079      C1084   1.401       .  A
C1079      H1085   1.083       .  S
C1080      C1081   1.412       .  A
C1081      C1082   1.406   1_556  A
C1081      H1086   1.083       .  S
C1082      C1083   1.404       .  A
C1082      H1087   1.084       .  S
C1083      C1084   1.407       .  A
C1084      H1088   1.084       .  S
C1089      C1090   1.408       .  A
C1089      C1094   1.408       .  A
C1089      H1095   1.083       .  S
C1090      C1091   1.411       .  A
C1091      C1092   1.405       .  A
C1091      H1096   1.083       .  S
C1092      C1093   1.406       .  A
C1092      H1097   1.083       .  S
C1093      C1094   1.410       .  A
C1094      H1098   1.083       .  S
C1099      C1100   1.403       .  A
C1099      C1104   1.406       .  A
C1099      H1105   1.083       .  S
C1100      C1101   1.407       .  A
C1101      C1102   1.398       .  A
C1101      H1106   1.083       .  S
C1102      C1103   1.402       .  A
C1102      H1107   1.083       .  S
C1103      C1104   1.410       .  A
C1104      H1108   1.083       .  S
C1109      C1110   1.408       .  A
C1109      H1115   1.083       .  S
C1111      C1112   1.389       .  A
C1112      C1113   1.407   1_545  A
C1112      H1117   1.083       .  S
C1113      C1114   1.408       .  A
C1114      H1118   1.083       .  S
C1119      C1120   1.406       .  A
C1119      C1124   1.404       .  A
C1119      H1125   1.083       .  S
C1120      C1121   1.411       .  A
C1121      C1122   1.408       .  A
C1121      H1126   1.083       .  S
C1122      C1123   1.406       .  A
C1122      H1127   1.083       .  S
C1123      C1124   1.410       .  A
C1124      H1128   1.083       .  S
C1129      C1130   1.401       .  A
C1129      C1134   1.389       .  A
C1129      H1135   1.083       .  S
C1131      C1132   1.378       .  A
C1131      H1136   1.084       .  S
C1132      C1133   1.399       .  A
C1132      H1137   1.084       .  S
C1134      H1138   1.083       .  S
C1139      C1140   1.407       .  A
C1139      C1144   1.408   1_556  A
C1139      H1145   1.083       .  S
C1140      C1141   1.412       .  A
C1141      C1142   1.407       .  A
C1141      H1146   1.083       .  S
C1142      C1143   1.407   1_556  A
C1142      H1147   1.083       .  S
C1143      C1144   1.411       .  A
C1144      H1148   1.083       .  S
C1149      C1150   1.402       .  A
C1149      C1154   1.387       .  A
C1149      H1155   1.083       .  S
C1150      C1151   1.399   1_556  A
C1151      C1152   1.378       .  A
C1151      H1156   1.084       .  S
C1152      C1153   1.400       .  A
C1152      H1157   1.084       .  S
C1153      C1154   1.399   1_554  A
C1154      H1158   1.083       .  S
C1159      C1160   1.412       .  A
C1159      C1164   1.406       .  A
C1159      H1165   1.083       .  S
C1160      C1161   1.402       .  A
C1161      C1162   1.399       .  A
C1161      H1166   1.083       .  S
C1162      C1163   1.408       .  A
C1162      H1167   1.083       .  S
C1163      C1164   1.402       .  A
C1164      H1168   1.083       .  S
C1169      C1170   1.409       .  A
C1169      C1174   1.401       .  A
C1169      H1175   1.084       .  S
C1170      C1171   1.401       .  A
C1171      C1172   1.404       .  A
C1171      H1176   1.083       .  S
C1172      C1173   1.412       .  A
C1172      H1177   1.083       .  S
C1173      C1174   1.402       .  A
C1174      H1178   1.083       .  S
C1179      C1180   1.409       .  A
C1179      C1184   1.406   1_556  A
C1179      H1185   1.083       .  S
C1180      C1181   1.406   1_556  A
C1181      C1182   1.403       .  A
C1181      H1186   1.083       .  S
C1182      C1183   1.409       .  A
C1182      H1187   1.083       .  S
C1183      C1184   1.407       .  A
C1184      H1188   1.083       .  S
C1189      C1190   1.405       .  A
C1189      C1194   1.404       .  A
C1189      H1195   1.083       .  S
C1190      C1191   1.410       .  A
C1191      C1192   1.406       .  A
C1191      H1196   1.083       .  S
C1192      C1193   1.407       .  A
C1192      H1197   1.083       .  S
C1193      C1194   1.411       .  A
C1194      H1198   1.083       .  S
C1199      C1200   1.399       .  A
C1199      C1204   1.385       .  A
C1199      H1205   1.083       .  S
C1200      C1201   1.403       .  A
C1201      C1202   1.382       .  A
C1201      H1206   1.083       .  S
C1202      C1203   1.399       .  A
C1202      H1207   1.083       .  S
C1203      C1204   1.404       .  A
C1204      H1208   1.083       .  S
C1209      C1210   1.411       .  A
C1209      C1214   1.402       .  A
C1209      H1215   1.083       .  S
C1210      C1211   1.402       .  A
C1211      C1212   1.401       .  A
C1211      H1216   1.083       .  S
C1212      C1213   1.409       .  A
C1212      H1217   1.084       .  S
C1213      C1214   1.400       .  A
C1214      H1218   1.083       .  S
C1219      C1220   1.409       .  A
C1219      C1224   1.412       .  A
C1219      H1225   1.083       .  S
C1220      C1221   1.406       .  A
C1221      C1222   1.389       .  A
C1221      H1226   1.083       .  S
C1222      C1223   1.402       .  A
C1222      H1227   1.084       .  S
C1223      C1224   1.408       .  A
C1224      H1228   1.083       .  S
C1229      C1230   1.409       .  A
C1229      C1234   1.401       .  A
C1229      H1235   1.084       .  S
C1230      C1231   1.402       .  A
C1231      C1232   1.403       .  A
C1231      H1236   1.083       .  S
C1232      C1233   1.410       .  A
C1232      H1237   1.083       .  S
C1233      C1234   1.402       .  A
C1234      H1238   1.083       .  S
C1239      C1240   1.410       .  A
C1239      C1244   1.405       .  A
C1239      H1245   1.083       .  S
C1240      C1241   1.406       .  A
C1241      C1242   1.405       .  A
C1241      H2494   1.083       .  S
C1242      C1243   1.410       .  A
C1242      H1247   1.083       .  S
C1243      C1244   1.406       .  A
C1244      H1248   1.083       .  S
H1246      C2489   1.083   1_455  S
O1249      C1264   1.268       .  A
O1249     Al1257   1.929       .  S
C1250      O1260   1.267       .  A
C1250      O1251   1.262       .  A
C1250      C1817   1.496       .  S
O1251     Al1253   1.913       .  S
O1252      C1254   1.255       .  A
O1252     Al1253   1.869       .  S
Al1253     O1261   1.864       .  S
Al1253     O1263   1.912       .  S
Al1253     O1262   1.776       .  S
C1254      O1267   1.256       .  A
C1254      C1827   1.451       .  S
O1255      C1265   1.266       .  A
O1255     Al1257   1.920       .  S
O1256      C1269   1.274       .  A
O1256     Al1266   1.950       .  S
Al1257     O1270   1.872       .  S
Al1257     O1267   1.876       .  S
Al1257     O1262   1.773       .  S
O1258      C1265   1.267       .  A
O1258     Al1266   1.933       .  S
O1259      C1268   1.270       .  A
O1259     Al1266   1.966       .  S
O1260     Al1266   1.934       .  S
O1261      C1268   1.256       .  A
O1262     Al1266   1.780       .  S
O1263      C1264   1.262       .  A
C1264      C1834   1.487       .  S
C1265      C1867   1.496       .  S
C1268      C1844   1.489       .  S
C1269      O1270   1.257       .  A
C1269      C1854   1.470       .  S
O1271      C1286   1.266       .  A
O1271     Al1279   1.921       .  S
C1272      O1282   1.268       .  A
C1272      O1273   1.264       .  A
C1272      C1764   1.501       .  S
O1273     Al1275   1.919       .  S
O1274      C1276   1.253       .  A
O1274     Al1275   1.862       .  S
Al1275     O1283   1.867       .  S
Al1275     O1285   1.924       .  S
Al1275     O1284   1.780       .  S
C1276      O1289   1.257       .  A
C1276      C1774   1.444       .  S
O1277      C1287   1.263       .  A
O1277     Al1279   1.913       .  S
O1278      C1291   1.275       .  A
O1278     Al1288   1.953       .  S
Al1279     O1292   1.875       .  S
Al1279     O1289   1.870       .  S
Al1279     O1284   1.768       .  S
O1280      C1287   1.266       .  A
O1280     Al1288   1.937       .  S
O1281      C1290   1.270       .  A
O1281     Al1288   1.966       .  S
O1282     Al1288   1.937       .  S
O1283      C1290   1.257       .  A
O1284     Al1288   1.782       .  S
O1285      C1286   1.263       .  A
C1286      C1784   1.489       .  S
C1287      C1804   1.496       .  S
C1290      C1847   1.484       .  S
C1291      O1292   1.259       .  A
C1291      C1794   1.472       .  S
O1293      C1308   1.264       .  A
O1293     Al1301   1.914       .  S
C1294      O1928   1.268       .  A
C1294      O1295   1.265       .  A
C1294      C1744   1.497       .  S
O1295     Al1921   1.922       .  S
O1296      C1298   1.255   1_565  A
O1296     Al1297   1.870   1_565  S
Al1297     O1919   1.922   1_545  S
Al1297     O1305   1.872       .  S
Al1297     O1307   1.924       .  S
Al1297     O1306   1.785       .  S
C1298      O1311   1.257       .  A
C1298      C1757   1.446   1_545  S
O1299      C1309   1.263       .  A
O1299     Al1301   1.918       .  S
O1300      C1313   1.274       .  A
O1300     Al1310   1.950       .  S
Al1301     O1314   1.873       .  S
Al1301     O1311   1.867       .  S
Al1301     O1306   1.767       .  S
O1302      C1309   1.265       .  A
O1302     Al1310   1.936       .  S
O1303      C1312   1.268       .  A
O1303     Al1310   1.960       .  S
O1304      C1918   1.268   1_545  A
O1304     Al1310   1.927       .  S
O1305      C1312   1.257       .  A
O1306     Al1310   1.783       .  S
O1307      C1308   1.263       .  A
C1308      C1727   1.487       .  S
C1309      C1717   1.498       .  S
C1312      C1734   1.480       .  S
C1313      O1314   1.259       .  A
C1313      C1837   1.470       .  S
O1315      C1330   1.269       .  A
O1315     Al1323   1.928       .  S
C1316      O1950   1.266   1_545  A
C1316      O1317   1.260       .  A
C1316      C1684   1.494       .  S
O1317     Al1943   1.910   1_545  S
O1318      C1320   1.256       .  A
O1318     Al1319   1.871       .  S
Al1319     O1941   1.910       .  S
Al1319     O1327   1.860       .  S
Al1319     O1329   1.915       .  S
Al1319     O1328   1.778       .  S
C1320      O1333   1.256       .  A
C1320      C1694   1.453       .  S
O1321      C1331   1.266       .  A
O1321     Al1323   1.917       .  S
O1322      C1335   1.274       .  A
O1322     Al1332   1.953       .  S
Al1323     O1336   1.875       .  S
Al1323     O1333   1.882       .  S
Al1323     O1328   1.773       .  S
O1324      C1331   1.266       .  A
O1324     Al1332   1.930       .  S
O1325      C1334   1.271       .  A
O1325     Al1332   1.967       .  S
O1326      C1940   1.266       .  A
O1326     Al1332   1.934       .  S
O1327      C1334   1.257       .  A
O1328     Al1332   1.782       .  S
O1329      C1330   1.263       .  A
C1330      C1797   1.488       .  S
C1331      C1704   1.494       .  S
C1334      C1737   1.487       .  S
C1335      O1336   1.257       .  A
C1335      C1677   1.475       .  S
O1337      C1352   1.268       .  A
O1337     Al1345   1.924       .  S
C1338      O1339   1.262       .  A
C1338      C1644   1.485       .  S
O1340      C1342   1.257       .  A
O1340     Al1341   1.883       .  S
Al1341     O1349   1.862       .  S
Al1341     O1351   1.917       .  S
Al1341     O1350   1.777       .  S
C1342      O1355   1.256       .  A
C1342      C1654   1.458       .  S
O1343      C1353   1.265       .  A
O1343     Al1345   1.913       .  S
O1344      C1357   1.273       .  A
O1344     Al1354   1.948       .  S
Al1345     O1358   1.879       .  S
Al1345     O1355   1.878       .  S
Al1345     O1350   1.768       .  S
O1346      C1353   1.268       .  A
O1346     Al1354   1.940       .  S
O1347      C1356   1.270       .  A
O1347     Al1354   1.962       .  S
O1348     Al1354   1.918       .  S
O1349      C1356   1.256       .  A
O1350     Al1354   1.784       .  S
O1351      C1352   1.263       .  A
C1352      C1857   1.486       .  S
C1353      C1664   1.495       .  S
C1356      C1634   1.484       .  S
C1357      O1358   1.259       .  A
C1357      C1724   1.472       .  S
O1359      C1374   1.265       .  A
O1359     Al1367   1.917       .  S
C1360      O1361   1.265       .  A
C1360      C1614   1.492       .  S
O1362      C1364   1.255       .  A
O1362     Al1363   1.876       .  S
Al1363     O1371   1.869       .  S
Al1363     O1373   1.929       .  S
Al1363     O1372   1.786       .  S
C1364      O1377   1.258       .  A
C1364      C1624   1.451       .  S
O1365      C1375   1.264       .  A
O1365     Al1367   1.917       .  S
O1366      C1379   1.274       .  A
O1366     Al1376   1.950       .  S
Al1367     O1380   1.880       .  S
Al1367     O1377   1.872       .  S
Al1367     O1372   1.764       .  S
O1368      C1375   1.265       .  A
O1368     Al1376   1.936       .  S
O1369      C1378   1.268       .  A
O1369     Al1376   1.956       .  S
O1370     Al1376   1.917       .  S
O1371      C1378   1.257       .  A
O1372     Al1376   1.786       .  S
O1373      C1374   1.264       .  A
C1374      C1674   1.488       .  S
C1375      C1604   1.497       .  S
C1378      C1637   1.476       .  S
C1379      O1380   1.259       .  A
C1379      C1787   1.475       .  S
O1381      C1396   1.259       .  A
O1381     Al1389   1.881       .  S
C1382      O1392   1.265       .  A
C1382      O1383   1.270       .  A
C1382      C1714   1.499       .  S
O1383     Al1385   1.937       .  S
O1384      C1386   1.263       .  A
O1384     Al1385   1.918       .  S
Al1385     O1393   1.940       .  S
Al1385     O1395   1.962       .  S
Al1385     O1394   1.778       .  S
C1386      O1399   1.264       .  A
C1386      C1647   1.487       .  S
O1387      C1397   1.254       .  A
O1387     Al1389   1.865       .  S
O1388      C1401   1.264       .  A
O1388     Al1398   1.920       .  S
Al1389     O1402   1.920       .  S
Al1389     O1399   1.917       .  S
Al1389     O1394   1.769       .  S
O1390      C1397   1.256       .  A
O1390     Al1398   1.872       .  S
O1391      C1400   1.256       .  A
O1391     Al1398   1.877       .  S
O1392     Al1398   1.921       .  S
O1393      C1400   1.264       .  A
O1394     Al1398   1.778       .  S
O1395      C1396   1.277       .  A
C1396      C1597   1.477       .  S
C1397      C1824   1.450       .  S
C1400      C1584   1.464       .  S
C1401      O1402   1.268       .  A
C1401      C1574   1.484       .  S
O1403      C1418   1.252       .  A
O1403     Al1411   1.835       .  S
C1404      O1414   1.260       .  A
C1404      O1405   1.281       .  A
C1404      C1607   1.486       .  S
O1405     Al1407   1.977       .  S
O1406      C1408   1.252       .  A
O1406     Al1407   1.887       .  S
Al1407     O1415   1.925       .  S
Al1407     O1417   1.975       .  S
Al1407     O1416   1.792       .  S
C1408      O1421   1.260       .  A
C1408      C1687   1.493       .  S
O1409      C1419   1.252       .  A
O1409     Al1411   1.874       .  S
O1410      C1423   1.268       .  A
O1410     Al1420   1.911       .  S
Al1411     O1424   1.934       .  S
Al1411     O1421   1.923       .  S
Al1411     O1416   1.782       .  S
O1412      C1419   1.250       .  A
O1412     Al1420   1.860       .  S
O1413      C1422   1.247       .  A
O1413     Al1420   1.861       .  S
O1414     Al1420   1.861       .  S
O1415      C1422   1.256       .  A
O1416     Al1420   1.797       .  S
O1417      C1418   1.276       .  A
C1418      C1567   1.480       .  S
C1419      C1777   1.441       .  S
C1422      C1587   1.481       .  S
C1423      O1424   1.270       .  A
C1423      C1554   1.473       .  S
O1425      C1440   1.252       .  A
O1425     Al1433   1.833       .  S
C1426      O1436   1.260       .  A
C1426      O2051   1.279   1_545  A
C1426      C1667   1.483       .  S
O1427      C2050   1.279       .  A
O1427     Al1429   1.970       .  S
O1428      C1430   1.253       .  A
O1428     Al1429   1.894       .  S
Al1429     O1437   1.929       .  S
Al1429     O1439   1.973       .  S
Al1429     O1438   1.796       .  S
C1430      O1443   1.259       .  A
C1430      C1814   1.495       .  S
O1431      C1441   1.252       .  A
O1431     Al1433   1.873       .  S
O1432      C1445   1.268       .  A
O1432     Al1442   1.914       .  S
Al1433     O1446   1.933       .  S
Al1433     O1443   1.921       .  S
Al1433     O1438   1.783       .  S
O1434      C1441   1.251       .  A
O1434     Al1442   1.866       .  S
O1435      C1444   1.248       .  A
O1435     Al1442   1.861       .  S
O1436     Al2066   1.861   1_545  S
O1437      C1444   1.258       .  A
O1438     Al1442   1.797       .  S
O1439      C1440   1.276       .  A
C1440      C1577   1.478       .  S
C1441      C1754   1.447       .  S
Al1442     O2060   1.861       .  S
C1444      C1544   1.484       .  S
C1445      O1446   1.270       .  A
C1445      C1537   1.478       .  S
O1447      C1462   1.261       .  A
O1447     Al1455   1.889       .  S
C1448      O1458   1.264       .  A
C1448      O2073   1.267       .  A
C1448      C1807   1.495       .  S
O1449      C2072   1.267   1_545  A
O1449     Al1451   1.929       .  S
O1450      C1452   1.265       .  A
O1450     Al1451   1.928       .  S
Al1451     O1459   1.950       .  S
Al1451     O1461   1.948       .  S
Al1451     O1460   1.779       .  S
C1452      O1465   1.263       .  A
C1452      C1617   1.492       .  S
O1453      C1463   1.258       .  A
O1453     Al1455   1.879       .  S
O1454      C1467   1.263       .  A
O1454     Al1464   1.925       .  S
Al1455     O1468   1.919       .  S
Al1455     O1465   1.915       .  S
Al1455     O1460   1.770       .  S
O1456      C1463   1.257       .  A
O1456     Al1464   1.872       .  S
O1457      C1466   1.257       .  A
O1457     Al1464   1.874       .  S
O1458     Al2088   1.921       .  S
O1459      C1466   1.267       .  A
O1460     Al1464   1.779       .  S
O1461      C1462   1.273       .  A
C1462      C1524   1.476       .  S
C1463      C1697   1.453       .  S
Al1464     O2082   1.921   1_545  S
C1466      C1547   1.466       .  S
C1467      O1468   1.267       .  A
C1467      C1564   1.486       .  S
O1469      C1484   1.254       .  A
O1469     Al1477   1.844       .  S
C1470      O1480   1.259       .  A
C1470      C1707   1.483       .  S
O1471     Al1473   1.966       .  S
O1472      C1474   1.254       .  A
O1472     Al1473   1.896       .  S
Al1473     O1481   1.925       .  S
Al1473     O1483   1.966       .  S
Al1473     O1482   1.798       .  S
C1474      O1487   1.261       .  A
C1474      C1767   1.502       .  S
O1475      C1485   1.255       .  A
O1475     Al1477   1.883       .  S
O1476      C1489   1.266       .  A
O1476     Al1486   1.909       .  S
Al1477     O1490   1.934       .  S
Al1477     O1487   1.932       .  S
Al1477     O1482   1.789       .  S
O1478      C1485   1.252       .  A
O1478     Al1486   1.864       .  S
O1479      C1488   1.249       .  A
O1479     Al1486   1.865       .  S
O1481      C1488   1.257       .  A
O1482     Al1486   1.797       .  S
O1483      C1484   1.274       .  A
C1484      C1557   1.478       .  S
C1485      C1627   1.451       .  S
C1488      C1514   1.483       .  S
C1489      O1490   1.269       .  A
C1489      C1527   1.477       .  S
O1491      C1506   1.261       .  A
O1491     Al1499   1.888       .  S
C1492      O1502   1.264       .  A
C1492      C1864   1.495       .  S
O1493     Al1495   1.929       .  S
O1494      C1496   1.263       .  A
O1494     Al1495   1.920       .  S
Al1495     O1503   1.943       .  S
Al1495     O1505   1.950       .  S
Al1495     O1504   1.784       .  S
C1496      O1509   1.265       .  A
C1496      C1747   1.497       .  S
O1497      C1507   1.257       .  A
O1497     Al1499   1.878       .  S
O1498      C1511   1.262       .  A
O1498     Al1508   1.913       .  S
Al1499     O1512   1.931       .  S
Al1499     O1509   1.930       .  S
Al1499     O1504   1.774       .  S
O1500      C1507   1.258       .  A
O1500     Al1508   1.878       .  S
O1501      C1510   1.257       .  A
O1501     Al1508   1.881       .  S
O1503      C1510   1.264       .  A
O1504     Al1508   1.780       .  S
O1505      C1506   1.274       .  A
C1506      C1534   1.477       .  S
C1507      C1657   1.458       .  S
C1510      C1517   1.467       .  S
C1511      O1512   1.268       .  A
C1511      C1594   1.492       .  S
C1513      C1514   1.406       .  A
C1513      C1518   1.407       .  A
C1513      H1519   1.083       .  S
C1515      C1516   1.391       .  A
C1515      H1520   1.083       .  S
C1516      C1517   1.396       .  A
C1516      H1521   1.084       .  S
C1518      H1522   1.083       .  S
C1523      C1524   1.408       .  A
C1523      C1528   1.400       .  A
C1523      H1529   1.084       .  S
C1524      C1525   1.403       .  A
C1525      C1526   1.406       .  A
C1525      H1530   1.083       .  S
C1526      C1527   1.408       .  A
C1526      H1531   1.084       .  S
C1527      C1528   1.400       .  A
C1528      H1532   1.084       .  S
C1533      C1534   1.408       .  A
C1533      C1538   1.398       .  A
C1533      H1539   1.084       .  S
C1534      C1535   1.404       .  A
C1535      C1536   1.408       .  A
C1535      H1540   1.083       .  S
C1536      C1537   1.408       .  A
C1536      H1541   1.083       .  S
C1537      C1538   1.400       .  A
C1538      H1542   1.083       .  S
C1543      C1544   1.406       .  A
C1543      C2172   1.407       .  A
C1543      H2173   1.083       .  S
C1544      C1545   1.410       .  A
C1545      C1546   1.390       .  A
C1545      H1550   1.083       .  S
C1546      C2171   1.395       .  A
C1546      H1551   1.084       .  S
C1547      C2170   1.395       .  A
C1547      C1548   1.406   1_545  A
C1548      C2167   1.407       .  A
C1548      H1552   1.083       .  S
H1549      C2167   1.083       .  S
C1553      C1554   1.408       .  A
C1553      C1558   1.405       .  A
C1553      H1559   1.084       .  S
C1554      C1555   1.398       .  A
C1555      C1556   1.398       .  A
C1555      H1560   1.083       .  S
C1556      C1557   1.410       .  A
C1556      H1561   1.084       .  S
C1557      C1558   1.403       .  A
C1558      H1562   1.083       .  S
C1563      C1564   1.412       .  A
C1563      C1568   1.407       .  A
C1563      H1569   1.083       .  S
C1564      C1565   1.400       .  A
C1565      C1566   1.398       .  A
C1565      H1570   1.083       .  S
C1566      C1567   1.411       .  A
C1566      H1571   1.084       .  S
C1567      C1568   1.402       .  A
C1568      H1572   1.083       .  S
C1573      C1574   1.400       .  A
C1573      C1578   1.397       .  A
C1573      H1579   1.083       .  S
C1574      C1575   1.411       .  A
C1575      C1576   1.406       .  A
C1575      H1580   1.083       .  S
C1576      C1577   1.402       .  A
C1576      H1581   1.083       .  S
C1577      C1578   1.411       .  A
C1578      H1582   1.084       .  S
C1583      C1584   1.406       .  A
C1583      C1588   1.406       .  A
C1583      H1589   1.083       .  S
C1584      C1585   1.395       .  A
C1585      C1586   1.390       .  A
C1585      H1590   1.084       .  S
C1586      C1587   1.409       .  A
C1586      H1591   1.083       .  S
C1587      C1588   1.405       .  A
C1588      H1592   1.083       .  S
C1593      C1594   1.402       .  A
C1593      C1598   1.403       .  A
C1593      H1599   1.083       .  S
C1594      C1595   1.413       .  A
C1595      C1596   1.406       .  A
C1595      H1600   1.083       .  S
C1596      C1597   1.401       .  A
C1596      H1601   1.083       .  S
C1597      C1598   1.410       .  A
C1598      H1602   1.082       .  S
C1603      C1604   1.406   1_554  A
C1603      C1608   1.403       .  A
C1603      H1609   1.083       .  S
C1604      C1605   1.411       .  A
C1605      C1606   1.409   1_556  A
C1605      H1610   1.083       .  S
C1606      C1607   1.405       .  A
C1606      H1611   1.084       .  S
C1607      C1608   1.407       .  A
C1608      H1612   1.083       .  S
C1613      C1614   1.409       .  A
C1613      C1618   1.405       .  A
C1613      H1619   1.083       .  S
C1614      C1615   1.406       .  A
C1615      C1616   1.402   1_556  A
C1616      C1617   1.408       .  A
C1616      H1621   1.083       .  S
C1617      C1618   1.407   1_554  A
C1618      H1622   1.083       .  S
C1623      C1624   1.403       .  A
C1624      C1625   1.399   1_556  A
C1625      C1626   1.378       .  A
C1625      H1630   1.084       .  S
C1626      H1631   1.084       .  S
C1627      C1628   1.401   1_554  A
C1628      H1632   1.083       .  S
C1633      C1638   1.410       .  A
C1633      H1639   1.083       .  S
C1634      C1635   1.406   1_655  A
C1635      C1636   1.388       .  A
C1635      H1640   1.083       .  S
C1636      H1641   1.084       .  S
C1637      C1638   1.408       .  A
C1638      H1642   1.083       .  S
C1643      C1644   1.409       .  A
C1643      C1648   1.401       .  A
C1643      H1649   1.083       .  S
C1644      C1645   1.405       .  A
C1645      C1646   1.400       .  A
C1645      H1650   1.083       .  S
C1646      C1647   1.409       .  A
C1646      H1651   1.083       .  S
C1647      C1648   1.404       .  A
C1648      H1652   1.083       .  S
C1653      C1654   1.405       .  A
C1653      H1659   1.083       .  S
C1655      C1656   1.388       .  A
C1655      H1660   1.083       .  S
C1656      C1657   1.406       .  A
C1656      H1661   1.083       .  S
C1657      C1658   1.399       .  A
C1663      C1664   1.406       .  A
C1663      C1668   1.401       .  A
C1663      H1669   1.083       .  S
C1664      C1665   1.411       .  A
C1665      C1666   1.408       .  A
C1665      H1670   1.083       .  S
C1666      C1667   1.405       .  A
C1666      H1671   1.084   1_545  S
C1667      C1668   1.406       .  A
C1668      H1672   1.084       .  S
C1673      C1674   1.402       .  A
C1673      C1678   1.400       .  A
C1673      H1679   1.083       .  S
C1674      C1675   1.410       .  A
C1675      C1676   1.407       .  A
C1675      H1680   1.083       .  S
C1676      C1677   1.404       .  A
C1676      H1681   1.083       .  S
C1677      C1678   1.408       .  A
C1678      H1682   1.084       .  S
C1683      C1684   1.406       .  A
C1683      C1688   1.406   1_556  A
C1683      H1689   1.083   1_545  S
C1684      C1685   1.411       .  A
C1685      C1686   1.402       .  A
C1685      H1690   1.083       .  S
C1686      C1687   1.404   1_556  A
C1686      H1691   1.083       .  S
C1687      C1688   1.411       .  A
C1688      H1692   1.083       .  S
C1693      C1694   1.404       .  A
C1693      C1698   1.386   1_556  A
C1693      H1699   1.083       .  S
C1694      C2319   1.399       .  A
C1695      C2318   1.399   1_545  A
C1695      C1696   1.383   1_556  A
C1695      H1700   1.083       .  S
C1696      C1697   1.403       .  A
C1696      H1701   1.083       .  S
C1697      C2322   1.400   1_545  A
C1698      C2321   1.400       .  A
C1698      H1702   1.083       .  S
C1703      C1704   1.405   1_554  A
C1703      C1708   1.401       .  A
C1703      H1709   1.083       .  S
C1704      C1705   1.412       .  A
C1705      C1706   1.406   1_556  A
C1705      H1710   1.083       .  S
C1706      C1707   1.404       .  A
C1706      H1711   1.084       .  S
C1707      C1708   1.407       .  A
C1708      H1712   1.084       .  S
C1713      C1714   1.408       .  A
C1713      C1718   1.408       .  A
C1713      H1719   1.083       .  S
C1714      C1715   1.411       .  A
C1715      C1716   1.405       .  A
C1715      H1720   1.083       .  S
C1716      C1717   1.406       .  A
C1716      H1721   1.083       .  S
C1717      C1718   1.410       .  A
C1718      H1722   1.083       .  S
C1723      C1724   1.403       .  A
C1723      C1728   1.406       .  A
C1723      H1729   1.083       .  S
C1724      C1725   1.407       .  A
C1725      C1726   1.398       .  A
C1725      H1730   1.083       .  S
C1726      C1727   1.402       .  A
C1726      H1731   1.083       .  S
C1727      C1728   1.410       .  A
C1728      H1732   1.083       .  S
C1733      C1734   1.408   1_565  A
C1733      C2362   1.411       .  A
C1733      H1739   1.083       .  S
C1734      C2359   1.400       .  A
C1735      C2358   1.400       .  A
C1735      C1736   1.389       .  A
C1735      H2364   1.084       .  S
C1736      C1737   1.407       .  A
C1736      H1741   1.083       .  S
C1737      C1738   1.408       .  A
C1738      C2357   1.411       .  A
C1738      H1742   1.083       .  S
H1740      C2359   1.084       .  S
C1743      C1744   1.406       .  A
C1743      C1748   1.404       .  A
C1743      H1749   1.083       .  S
C1744      C1745   1.411       .  A
C1745      C1746   1.408       .  A
C1745      H1750   1.083       .  S
C1746      C1747   1.406       .  A
C1746      H1751   1.083       .  S
C1747      C1748   1.410       .  A
C1748      H1752   1.083       .  S
C1753      C1754   1.401       .  A
C1753      C1758   1.389       .  A
C1753      H1759   1.083       .  S
C1754      C2379   1.400       .  A
C1755      C2378   1.400   1_545  A
C1755      C1756   1.378       .  A
C1755      H1760   1.084       .  S
C1756      C1757   1.399   1_545  A
C1756      H1761   1.084       .  S
C1757      C2382   1.402       .  A
C1758      C2381   1.402       .  A
C1758      H1762   1.083       .  S
C1763      C1764   1.407       .  A
C1763      C1768   1.408   1_556  A
C1763      H1769   1.083       .  S
C1764      C1765   1.412       .  A
C1765      C1766   1.407       .  A
C1765      H1770   1.083       .  S
C1766      C1767   1.407   1_556  A
C1766      H1771   1.083       .  S
C1767      C1768   1.411       .  A
C1768      H1772   1.083       .  S
C1773      C1774   1.402       .  A
C1773      C1778   1.387       .  A
C1773      H1779   1.083       .  S
C1774      C1775   1.399   1_556  A
C1775      C1776   1.378       .  A
C1775      H1780   1.084       .  S
C1776      C1777   1.400       .  A
C1776      H1781   1.084       .  S
C1777      C1778   1.399   1_554  A
C1778      H1782   1.083       .  S
C1783      C1784   1.412       .  A
C1783      C1788   1.406       .  A
C1783      H1789   1.083       .  S
C1784      C1785   1.402       .  A
C1785      C1786   1.399       .  A
C1785      H1790   1.083       .  S
C1786      C1787   1.408       .  A
C1786      H1791   1.083       .  S
C1787      C1788   1.402       .  A
C1788      H1792   1.083       .  S
C1793      C1794   1.409       .  A
C1793      C1798   1.401       .  A
C1793      H1799   1.084       .  S
C1794      C1795   1.401       .  A
C1795      C1796   1.404       .  A
C1795      H1800   1.083       .  S
C1796      C1797   1.412       .  A
C1796      H1801   1.083       .  S
C1797      C1798   1.402       .  A
C1798      H1802   1.083       .  S
C1803      C1804   1.409       .  A
C1803      C1808   1.406   1_556  A
C1803      H1809   1.083       .  S
C1804      C1805   1.406   1_556  A
C1805      C1806   1.403       .  A
C1805      H1810   1.083       .  S
C1806      C1807   1.409       .  A
C1806      H1811   1.083       .  S
C1807      C1808   1.407       .  A
C1808      H1812   1.083       .  S
C1813      C1814   1.405       .  A
C1813      C1818   1.404       .  A
C1813      H1819   1.083       .  S
C1814      C1815   1.410       .  A
C1815      C1816   1.406       .  A
C1815      H1820   1.083       .  S
C1816      C1817   1.407       .  A
C1816      H1821   1.083       .  S
C1817      C1818   1.411       .  A
C1818      H1822   1.083       .  S
C1823      C1824   1.399       .  A
C1823      C1828   1.385       .  A
C1823      H1829   1.083       .  S
C1824      C1825   1.403       .  A
C1825      C1826   1.382       .  A
C1825      H1830   1.083       .  S
C1826      C1827   1.399       .  A
C1826      H1831   1.083       .  S
C1827      C1828   1.404       .  A
C1828      H1832   1.083       .  S
C1833      C1834   1.411       .  A
C1833      C1838   1.402       .  A
C1833      H1839   1.083       .  S
C1834      C1835   1.402       .  A
C1835      C1836   1.401       .  A
C1835      H1840   1.083       .  S
C1836      C1837   1.409       .  A
C1836      H1841   1.084       .  S
C1837      C1838   1.400       .  A
C1838      H1842   1.083       .  S
C1843      C1844   1.409       .  A
C1843      C1848   1.412       .  A
C1843      H1849   1.083       .  S
C1844      C1845   1.406       .  A
C1845      C1846   1.389       .  A
C1845      H1850   1.083       .  S
C1846      C1847   1.402       .  A
C1846      H1851   1.084       .  S
C1847      C1848   1.408       .  A
C1848      H1852   1.083       .  S
C1853      C1854   1.409       .  A
C1853      C1858   1.401       .  A
C1853      H1859   1.084       .  S
C1854      C1855   1.402       .  A
C1855      C1856   1.403       .  A
C1855      H1860   1.083       .  S
C1856      C1857   1.410       .  A
C1856      H1861   1.083       .  S
C1857      C1858   1.402       .  A
C1858      H1862   1.083       .  S
C1863      C1864   1.410       .  A
C1863      C1868   1.405       .  A
C1863      H1869   1.083       .  S
C1864      C1865   1.406       .  A
C1865      C1866   1.405       .  A
C1866      C1867   1.410       .  A
C1866      H1871   1.083       .  S
C1867      C1868   1.406       .  A
C1868      H1872   1.083       .  S
O1873      C1888   1.268       .  A
O1873     Al1881   1.929       .  S
C1874      O1884   1.267       .  A
C1874      O1875   1.262       .  A
C1874      C2441   1.496       .  S
O1875     Al1877   1.913       .  S
O1876      C1878   1.255       .  A
O1876     Al1877   1.869       .  S
Al1877     O1885   1.864       .  S
Al1877     O1887   1.912       .  S
Al1877     O1886   1.776       .  S
C1878      O1891   1.256       .  A
C1878      C2451   1.451       .  S
O1879      C1889   1.266       .  A
O1879     Al1881   1.920       .  S
O1880      C1893   1.274       .  A
O1880     Al1890   1.950       .  S
Al1881     O1894   1.872       .  S
Al1881     O1891   1.876       .  S
Al1881     O1886   1.773       .  S
O1882      C1889   1.267       .  A
O1882     Al1890   1.933       .  S
O1883      C1892   1.270       .  A
O1883     Al1890   1.966       .  S
O1884     Al1890   1.934       .  S
O1885      C1892   1.256       .  A
O1886     Al1890   1.780       .  S
O1887      C1888   1.262       .  A
C1888      C2458   1.487       .  S
C1889      C2491   1.496       .  S
C1892      C2468   1.489       .  S
C1893      O1894   1.257       .  A
C1893      C2478   1.470       .  S
O1895      C1910   1.266       .  A
O1895     Al1903   1.921       .  S
C1896      O1906   1.268       .  A
C1896      O1897   1.264       .  A
C1896      C2388   1.501       .  S
O1897     Al1899   1.919       .  S
O1898      C1900   1.253       .  A
O1898     Al1899   1.862       .  S
Al1899     O1907   1.867       .  S
Al1899     O1909   1.924       .  S
Al1899     O1908   1.780       .  S
C1900      O1913   1.257       .  A
C1900      C2398   1.444       .  S
O1901      C1911   1.263       .  A
O1901     Al1903   1.913       .  S
O1902      C1915   1.275       .  A
O1902     Al1912   1.953       .  S
Al1903     O1916   1.875       .  S
Al1903     O1913   1.870       .  S
Al1903     O1908   1.768       .  S
O1904      C1911   1.266       .  A
O1904     Al1912   1.937       .  S
O1905      C1914   1.270       .  A
O1905     Al1912   1.966       .  S
O1906     Al1912   1.937       .  S
O1907      C1914   1.257       .  A
O1908     Al1912   1.782       .  S
O1909      C1910   1.263       .  A
C1910      C2408   1.489       .  S
C1911      C2428   1.496       .  S
C1914      C2471   1.484       .  S
C1915      O1916   1.259       .  A
C1915      C2418   1.472       .  S
O1917      C1932   1.264       .  A
O1917     Al1925   1.914       .  S
C1918      O1919   1.265       .  A
C1918      C2368   1.497       .  S
O1920      C1922   1.255       .  A
O1920     Al1921   1.870       .  S
Al1921     O1929   1.872       .  S
Al1921     O1931   1.924       .  S
Al1921     O1930   1.785       .  S
C1922      O1935   1.257       .  A
C1922      C2381   1.446       .  S
O1923      C1933   1.263       .  A
O1923     Al1925   1.918       .  S
O1924      C1937   1.274       .  A
O1924     Al1934   1.950       .  S
Al1925     O1938   1.873       .  S
Al1925     O1935   1.867       .  S
Al1925     O1930   1.767       .  S
O1926      C1933   1.265       .  A
O1926     Al1934   1.936       .  S
O1927      C1936   1.268       .  A
O1927     Al1934   1.960       .  S
O1928     Al1934   1.927       .  S
O1929      C1936   1.257       .  A
O1930     Al1934   1.783       .  S
O1931      C1932   1.263       .  A
C1932      C2351   1.487       .  S
C1933      C2341   1.498       .  S
C1936      C2358   1.480       .  S
C1937      O1938   1.259       .  A
C1937      C2461   1.470       .  S
O1939      C1954   1.269       .  A
O1939     Al1947   1.928       .  S
C1940      O1941   1.260       .  A
C1940      C2308   1.494       .  S
O1942      C1944   1.256       .  A
O1942     Al1943   1.871       .  S
Al1943     O1951   1.860       .  S
Al1943     O1953   1.915       .  S
Al1943     O1952   1.778       .  S
C1944      O1957   1.256       .  A
C1944      C2318   1.453       .  S
O1945      C1955   1.266       .  A
O1945     Al1947   1.917       .  S
O1946      C1959   1.274       .  A
O1946     Al1956   1.953       .  S
Al1947     O1960   1.875       .  S
Al1947     O1957   1.882       .  S
Al1947     O1952   1.773       .  S
O1948      C1955   1.266       .  A
O1948     Al1956   1.930       .  S
O1949      C1958   1.271       .  A
O1949     Al1956   1.967       .  S
O1950     Al1956   1.934       .  S
O1951      C1958   1.257       .  A
O1952     Al1956   1.782       .  S
O1953      C1954   1.263       .  A
C1954      C2421   1.488       .  S
C1955      C2328   1.494       .  S
C1958      C2361   1.487       .  S
C1959      O1960   1.257       .  A
C1959      C2301   1.475       .  S
O1961      C1976   1.268       .  A
O1961     Al1969   1.924       .  S
C1962      O1963   1.262       .  A
C1962      C2268   1.485       .  S
O1964      C1966   1.257       .  A
O1964     Al1965   1.883       .  S
Al1965     O1973   1.862       .  S
Al1965     O1975   1.917       .  S
Al1965     O1974   1.777       .  S
C1966      O1979   1.256       .  A
C1966      C2278   1.458       .  S
O1967      C1977   1.265       .  A
O1967     Al1969   1.913       .  S
O1968      C1981   1.273       .  A
O1968     Al1978   1.948       .  S
Al1969     O1982   1.879       .  S
Al1969     O1979   1.878       .  S
Al1969     O1974   1.768       .  S
O1970      C1977   1.268       .  A
O1970     Al1978   1.940       .  S
O1971      C1980   1.270       .  A
O1971     Al1978   1.962       .  S
O1972     Al1978   1.918       .  S
O1973      C1980   1.256       .  A
O1974     Al1978   1.784       .  S
O1975      C1976   1.263       .  A
C1976      C2481   1.486       .  S
C1977      C2288   1.495       .  S
C1980      C2258   1.484       .  S
C1981      O1982   1.259       .  A
C1981      C2348   1.472       .  S
O1983      C1998   1.265       .  A
O1983     Al1991   1.917       .  S
C1984      O1985   1.265       .  A
C1984      C2238   1.492       .  S
O1986      C1988   1.255       .  A
O1986     Al1987   1.876       .  S
Al1987     O1995   1.869       .  S
Al1987     O1997   1.929       .  S
Al1987     O1996   1.786       .  S
C1988      O2001   1.258       .  A
C1988      C2248   1.451       .  S
O1989      C1999   1.264       .  A
O1989     Al1991   1.917       .  S
O1990      C2003   1.274       .  A
O1990     Al2000   1.950       .  S
Al1991     O2004   1.880       .  S
Al1991     O2001   1.872       .  S
Al1991     O1996   1.764       .  S
O1992      C1999   1.265       .  A
O1992     Al2000   1.936       .  S
O1993      C2002   1.268       .  A
O1993     Al2000   1.956       .  S
O1994     Al2000   1.917       .  S
O1995      C2002   1.257       .  A
O1996     Al2000   1.786       .  S
O1997      C1998   1.264       .  A
C1998      C2298   1.488       .  S
C1999      C2228   1.497       .  S
C2002      C2261   1.476       .  S
C2003      O2004   1.259       .  A
C2003      C2411   1.475       .  S
O2005      C2020   1.259       .  A
O2005     Al2013   1.881       .  S
C2006      O2016   1.265       .  A
C2006      O2007   1.270       .  A
C2006      C2338   1.499       .  S
O2007     Al2009   1.937       .  S
O2008      C2010   1.263       .  A
O2008     Al2009   1.918       .  S
Al2009     O2017   1.940       .  S
Al2009     O2019   1.962       .  S
Al2009     O2018   1.778       .  S
C2010      O2023   1.264       .  A
C2010      C2271   1.487       .  S
O2011      C2021   1.254       .  A
O2011     Al2013   1.865       .  S
O2012      C2025   1.264       .  A
O2012     Al2022   1.920       .  S
Al2013     O2026   1.920       .  S
Al2013     O2023   1.917       .  S
Al2013     O2018   1.769       .  S
O2014      C2021   1.256       .  A
O2014     Al2022   1.872       .  S
O2015      C2024   1.256       .  A
O2015     Al2022   1.877       .  S
O2016     Al2022   1.921       .  S
O2017      C2024   1.264       .  A
O2018     Al2022   1.778       .  S
O2019      C2020   1.277       .  A
C2020      C2221   1.477       .  S
C2021      C2448   1.450       .  S
C2024      C2208   1.464       .  S
C2025      O2026   1.268       .  A
C2025      C2198   1.484       .  S
O2027      C2042   1.252       .  A
O2027     Al2035   1.835       .  S
C2028      O2038   1.260       .  A
C2028      O2029   1.281       .  A
C2028      C2231   1.486       .  S
O2029     Al2031   1.977       .  S
O2030      C2032   1.252       .  A
O2030     Al2031   1.887       .  S
Al2031     O2039   1.925       .  S
Al2031     O2041   1.975       .  S
Al2031     O2040   1.792       .  S
C2032      O2045   1.260       .  A
C2032      C2311   1.493       .  S
O2033      C2043   1.252       .  A
O2033     Al2035   1.873       .  S
O2034      C2047   1.268       .  A
O2034     Al2044   1.911       .  S
Al2035     O2048   1.934       .  S
Al2035     O2045   1.923       .  S
Al2035     O2040   1.782       .  S
O2036      C2043   1.250       .  A
O2036     Al2044   1.860       .  S
O2037      C2046   1.247       .  A
O2037     Al2044   1.861       .  S
O2038     Al2044   1.861       .  S
O2039      C2046   1.256       .  A
O2040     Al2044   1.797       .  S
O2041      C2042   1.276       .  A
C2042      C2191   1.480       .  S
C2043      C2401   1.441       .  S
C2046      C2211   1.481       .  S
C2047      O2048   1.270       .  A
C2047      C2178   1.473       .  S
O2049      C2064   1.252       .  A
O2049     Al2057   1.833       .  S
C2050      O2060   1.260       .  A
C2050      C2291   1.483       .  S
O2051     Al2053   1.970       .  S
O2052      C2054   1.253       .  A
O2052     Al2053   1.894       .  S
Al2053     O2061   1.929       .  S
Al2053     O2063   1.973       .  S
Al2053     O2062   1.796       .  S
C2054      O2067   1.259       .  A
C2054      C2438   1.495       .  S
O2055      C2065   1.252       .  A
O2055     Al2057   1.873       .  S
O2056      C2069   1.268       .  A
O2056     Al2066   1.914       .  S
Al2057     O2070   1.933       .  S
Al2057     O2067   1.921       .  S
Al2057     O2062   1.783       .  S
O2058      C2065   1.251       .  A
O2058     Al2066   1.866       .  S
O2059      C2068   1.248       .  A
O2059     Al2066   1.861       .  S
O2061      C2068   1.258       .  A
O2062     Al2066   1.797       .  S
O2063      C2064   1.276       .  A
C2064      C2201   1.478       .  S
C2065      C2378   1.447       .  S
C2068      C2168   1.484       .  S
C2069      O2070   1.270       .  A
C2069      C2161   1.478       .  S
O2071      C2086   1.261       .  A
O2071     Al2079   1.889       .  S
C2072      O2082   1.264       .  A
C2072      C2431   1.495       .  S
O2073     Al2075   1.929       .  S
O2074      C2076   1.265       .  A
O2074     Al2075   1.928       .  S
Al2075     O2083   1.950       .  S
Al2075     O2085   1.948       .  S
Al2075     O2084   1.779       .  S
C2076      O2089   1.263       .  A
C2076      C2241   1.492       .  S
O2077      C2087   1.258       .  A
O2077     Al2079   1.879       .  S
O2078      C2091   1.263       .  A
O2078     Al2088   1.925       .  S
Al2079     O2092   1.919       .  S
Al2079     O2089   1.915       .  S
Al2079     O2084   1.770       .  S
O2080      C2087   1.257       .  A
O2080     Al2088   1.872       .  S
O2081      C2090   1.257       .  A
O2081     Al2088   1.874       .  S
O2083      C2090   1.267       .  A
O2084     Al2088   1.779       .  S
O2085      C2086   1.273       .  A
C2086      C2148   1.476       .  S
C2087      C2321   1.453       .  S
C2090      C2171   1.466       .  S
C2091      O2092   1.267       .  A
C2091      C2188   1.486       .  S
O2093      C2108   1.254       .  A
O2093     Al2101   1.844       .  S
C2094      O2104   1.259       .  A
C2094      C2331   1.483       .  S
O2095     Al2097   1.966       .  S
O2096      C2098   1.254       .  A
O2096     Al2097   1.896       .  S
Al2097     O2105   1.925       .  S
Al2097     O2107   1.966       .  S
Al2097     O2106   1.798       .  S
C2098      O2111   1.261       .  A
C2098      C2391   1.502       .  S
O2099      C2109   1.255       .  A
O2099     Al2101   1.883       .  S
O2100      C2113   1.266       .  A
O2100     Al2110   1.909       .  S
Al2101     O2114   1.934       .  S
Al2101     O2111   1.932       .  S
Al2101     O2106   1.789       .  S
O2102      C2109   1.252       .  A
O2102     Al2110   1.864       .  S
O2103      C2112   1.249       .  A
O2103     Al2110   1.865       .  S
O2105      C2112   1.257       .  A
O2106     Al2110   1.797       .  S
O2107      C2108   1.274       .  A
C2108      C2181   1.478       .  S
C2109      C2251   1.451       .  S
C2112      C2138   1.483       .  S
C2113      O2114   1.269       .  A
C2113      C2151   1.477       .  S
O2115      C2130   1.261       .  A
O2115     Al2123   1.888       .  S
C2116      O2126   1.264       .  A
C2116      C2488   1.495       .  S
O2117     Al2119   1.929       .  S
O2118      C2120   1.263       .  A
O2118     Al2119   1.920       .  S
Al2119     O2127   1.943       .  S
Al2119     O2129   1.950       .  S
Al2119     O2128   1.784       .  S
C2120      O2133   1.265       .  A
C2120      C2371   1.497       .  S
O2121      C2131   1.257       .  A
O2121     Al2123   1.878       .  S
O2122      C2135   1.262       .  A
O2122     Al2132   1.913       .  S
Al2123     O2136   1.931       .  S
Al2123     O2133   1.930       .  S
Al2123     O2128   1.774       .  S
O2124      C2131   1.258       .  A
O2124     Al2132   1.878       .  S
O2125      C2134   1.257       .  A
O2125     Al2132   1.881       .  S
O2127      C2134   1.264       .  A
O2128     Al2132   1.780       .  S
O2129      C2130   1.274       .  A
C2130      C2158   1.477       .  S
C2131      C2281   1.458       .  S
C2134      C2141   1.467       .  S
C2135      O2136   1.268       .  A
C2135      C2218   1.492       .  S
C2137      C2138   1.406       .  A
C2137      C2142   1.407       .  A
C2137      H2143   1.083       .  S
C2139      C2140   1.391       .  A
C2139      H2144   1.083       .  S
C2140      C2141   1.396       .  A
C2140      H2145   1.084       .  S
C2142      H2146   1.083       .  S
C2147      C2148   1.408       .  A
C2147      C2152   1.400       .  A
C2147      H2153   1.084       .  S
C2148      C2149   1.403       .  A
C2149      C2150   1.406       .  A
C2149      H2154   1.083       .  S
C2150      C2151   1.408       .  A
C2150      H2155   1.084       .  S
C2151      C2152   1.400       .  A
C2152      H2156   1.084       .  S
C2157      C2158   1.408       .  A
C2157      C2162   1.398       .  A
C2157      H2163   1.084       .  S
C2158      C2159   1.404       .  A
C2159      C2160   1.408       .  A
C2159      H2164   1.083       .  S
C2160      C2161   1.408       .  A
C2160      H2165   1.083       .  S
C2161      C2162   1.400       .  A
C2162      H2166   1.083       .  S
C2167      C2168   1.406       .  A
C2168      C2169   1.410   1_565  A
C2169      C2170   1.390       .  A
C2169      H2174   1.083       .  S
C2170      H2175   1.084       .  S
C2171      C2172   1.406       .  A
C2172      H2176   1.083       .  S
C2177      C2178   1.408       .  A
C2177      C2182   1.405       .  A
C2177      H2183   1.084       .  S
C2178      C2179   1.398       .  A
C2179      C2180   1.398       .  A
C2179      H2184   1.083       .  S
C2180      C2181   1.410       .  A
C2180      H2185   1.084       .  S
C2181      C2182   1.403       .  A
C2182      H2186   1.083       .  S
C2187      C2188   1.412       .  A
C2187      C2192   1.407       .  A
C2187      H2193   1.083       .  S
C2188      C2189   1.400       .  A
C2189      C2190   1.398       .  A
C2189      H2194   1.083       .  S
C2190      C2191   1.411       .  A
C2190      H2195   1.084       .  S
C2191      C2192   1.402       .  A
C2192      H2196   1.083       .  S
C2197      C2198   1.400       .  A
C2197      C2202   1.397       .  A
C2197      H2203   1.083       .  S
C2198      C2199   1.411       .  A
C2199      C2200   1.406       .  A
C2199      H2204   1.083       .  S
C2200      C2201   1.402       .  A
C2200      H2205   1.083       .  S
C2201      C2202   1.411       .  A
C2202      H2206   1.084       .  S
C2207      C2208   1.406       .  A
C2207      C2212   1.406       .  A
C2207      H2213   1.083       .  S
C2208      C2209   1.395       .  A
C2209      C2210   1.390       .  A
C2209      H2214   1.084       .  S
C2210      C2211   1.409       .  A
C2210      H2215   1.083       .  S
C2211      C2212   1.405       .  A
C2212      H2216   1.083       .  S
C2217      C2218   1.402       .  A
C2217      C2222   1.403       .  A
C2217      H2223   1.083       .  S
C2218      C2219   1.413       .  A
C2219      C2220   1.406       .  A
C2219      H2224   1.083       .  S
C2220      C2221   1.401       .  A
C2220      H2225   1.083       .  S
C2221      C2222   1.410       .  A
C2222      H2226   1.082       .  S
C2227      C2228   1.406   1_554  A
C2227      C2232   1.403       .  A
C2227      H2233   1.083       .  S
C2228      C2229   1.411       .  A
C2229      C2230   1.409   1_556  A
C2229      H2234   1.083       .  S
C2230      C2231   1.405       .  A
C2230      H2235   1.084       .  S
C2231      C2232   1.407       .  A
C2232      H2236   1.083       .  S
C2237      C2238   1.409       .  A
C2237      C2242   1.405       .  A
C2237      H2243   1.083       .  S
C2238      C2239   1.406       .  A
C2239      C2240   1.402   1_556  A
C2240      C2241   1.408       .  A
C2240      H2245   1.083       .  S
C2241      C2242   1.407   1_554  A
C2242      H2246   1.083       .  S
C2247      C2248   1.403       .  A
C2248      C2249   1.399   1_556  A
C2249      C2250   1.378       .  A
C2249      H2254   1.084       .  S
C2250      H2255   1.084       .  S
C2251      C2252   1.401   1_554  A
C2252      H2256   1.083       .  S
C2257      C2262   1.410       .  A
C2257      H2263   1.083       .  S
C2258      C2259   1.406   1_655  A
C2259      C2260   1.388       .  A
C2259      H2264   1.083       .  S
C2260      H2265   1.084       .  S
C2261      C2262   1.408       .  A
C2262      H2266   1.083       .  S
C2267      C2268   1.409       .  A
C2267      C2272   1.401       .  A
C2267      H2273   1.083       .  S
C2268      C2269   1.405       .  A
C2269      C2270   1.400       .  A
C2269      H2274   1.083       .  S
C2270      C2271   1.409       .  A
C2270      H2275   1.083       .  S
C2271      C2272   1.404       .  A
C2272      H2276   1.083       .  S
C2277      C2278   1.405       .  A
C2277      H2283   1.083       .  S
C2279      C2280   1.388       .  A
C2279      H2284   1.083       .  S
C2280      C2281   1.406       .  A
C2280      H2285   1.083       .  S
C2281      C2282   1.399       .  A
C2287      C2288   1.406       .  A
C2287      C2292   1.401       .  A
C2287      H2293   1.083       .  S
C2288      C2289   1.411       .  A
C2289      C2290   1.408       .  A
C2289      H2294   1.083       .  S
C2290      C2291   1.405       .  A
C2290      H2295   1.084       .  S
C2291      C2292   1.406       .  A
C2292      H2296   1.084       .  S
C2297      C2298   1.402       .  A
C2297      C2302   1.400       .  A
C2297      H2303   1.083       .  S
C2298      C2299   1.410       .  A
C2299      C2300   1.407       .  A
C2299      H2304   1.083       .  S
C2300      C2301   1.404       .  A
C2300      H2305   1.083       .  S
C2301      C2302   1.408       .  A
C2302      H2306   1.084       .  S
C2307      C2308   1.406       .  A
C2307      C2312   1.406   1_556  A
C2307      H2313   1.083       .  S
C2308      C2309   1.411       .  A
C2309      C2310   1.402       .  A
C2309      H2314   1.083       .  S
C2310      C2311   1.404   1_556  A
C2310      H2315   1.083       .  S
C2311      C2312   1.411       .  A
C2312      H2316   1.083       .  S
C2317      C2318   1.404       .  A
C2317      C2322   1.386   1_556  A
C2317      H2323   1.083       .  S
C2319      C2320   1.383   1_556  A
C2319      H2324   1.083       .  S
C2320      C2321   1.403       .  A
C2320      H2325   1.083       .  S
C2322      H2326   1.083       .  S
C2327      C2328   1.405   1_554  A
C2327      C2332   1.401       .  A
C2327      H2333   1.083       .  S
C2328      C2329   1.412       .  A
C2329      C2330   1.406   1_556  A
C2329      H2334   1.083       .  S
C2330      C2331   1.404       .  A
C2330      H2335   1.084       .  S
C2331      C2332   1.407       .  A
C2332      H2336   1.084       .  S
C2337      C2338   1.408       .  A
C2337      C2342   1.408       .  A
C2337      H2343   1.083       .  S
C2338      C2339   1.411       .  A
C2339      C2340   1.405       .  A
C2339      H2344   1.083       .  S
C2340      C2341   1.406       .  A
C2340      H2345   1.083       .  S
C2341      C2342   1.410       .  A
C2342      H2346   1.083       .  S
C2347      C2348   1.403       .  A
C2347      C2352   1.406       .  A
C2347      H2353   1.083       .  S
C2348      C2349   1.407       .  A
C2349      C2350   1.398       .  A
C2349      H2354   1.083       .  S
C2350      C2351   1.402       .  A
C2350      H2355   1.083       .  S
C2351      C2352   1.410       .  A
C2352      H2356   1.083       .  S
C2357      C2358   1.408       .  A
C2357      H2363   1.083       .  S
C2359      C2360   1.389       .  A
C2360      C2361   1.407   1_545  A
C2360      H2365   1.083       .  S
C2361      C2362   1.408       .  A
C2362      H2366   1.083       .  S
C2367      C2368   1.406       .  A
C2367      C2372   1.404       .  A
C2367      H2373   1.083       .  S
C2368      C2369   1.411       .  A
C2369      C2370   1.408       .  A
C2369      H2374   1.083       .  S
C2370      C2371   1.406       .  A
C2370      H2375   1.083       .  S
C2371      C2372   1.410       .  A
C2372      H2376   1.083       .  S
C2377      C2378   1.401       .  A
C2377      C2382   1.389       .  A
C2377      H2383   1.083       .  S
C2379      C2380   1.378       .  A
C2379      H2384   1.084       .  S
C2380      C2381   1.399       .  A
C2380      H2385   1.084       .  S
C2382      H2386   1.083       .  S
C2387      C2388   1.407       .  A
C2387      C2392   1.408   1_556  A
C2387      H2393   1.083       .  S
C2388      C2389   1.412       .  A
C2389      C2390   1.407       .  A
C2389      H2394   1.083       .  S
C2390      C2391   1.407   1_556  A
C2390      H2395   1.083       .  S
C2391      C2392   1.411       .  A
C2392      H2396   1.083       .  S
C2397      C2398   1.402       .  A
C2397      C2402   1.387       .  A
C2397      H2403   1.083       .  S
C2398      C2399   1.399   1_556  A
C2399      C2400   1.378       .  A
C2399      H2404   1.084       .  S
C2400      C2401   1.400       .  A
C2400      H2405   1.084       .  S
C2401      C2402   1.399   1_554  A
C2402      H2406   1.083       .  S
C2407      C2408   1.412       .  A
C2407      C2412   1.406       .  A
C2407      H2413   1.083       .  S
C2408      C2409   1.402       .  A
C2409      C2410   1.399       .  A
C2409      H2414   1.083       .  S
C2410      C2411   1.408       .  A
C2410      H2415   1.083       .  S
C2411      C2412   1.402       .  A
C2412      H2416   1.083       .  S
C2417      C2418   1.409       .  A
C2417      C2422   1.401       .  A
C2417      H2423   1.084       .  S
C2418      C2419   1.401       .  A
C2419      C2420   1.404       .  A
C2419      H2424   1.083       .  S
C2420      C2421   1.412       .  A
C2420      H2425   1.083       .  S
C2421      C2422   1.402       .  A
C2422      H2426   1.083       .  S
C2427      C2428   1.409       .  A
C2427      C2432   1.406   1_556  A
C2427      H2433   1.083       .  S
C2428      C2429   1.406   1_556  A
C2429      C2430   1.403       .  A
C2429      H2434   1.083       .  S
C2430      C2431   1.409       .  A
C2430      H2435   1.083       .  S
C2431      C2432   1.407       .  A
C2432      H2436   1.083       .  S
C2437      C2438   1.405       .  A
C2437      C2442   1.404       .  A
C2437      H2443   1.083       .  S
C2438      C2439   1.410       .  A
C2439      C2440   1.406       .  A
C2439      H2444   1.083       .  S
C2440      C2441   1.407       .  A
C2440      H2445   1.083       .  S
C2441      C2442   1.411       .  A
C2442      H2446   1.083       .  S
C2447      C2448   1.399       .  A
C2447      C2452   1.385       .  A
C2447      H2453   1.083       .  S
C2448      C2449   1.403       .  A
C2449      C2450   1.382       .  A
C2449      H2454   1.083       .  S
C2450      C2451   1.399       .  A
C2450      H2455   1.083       .  S
C2451      C2452   1.404       .  A
C2452      H2456   1.083       .  S
C2457      C2458   1.411       .  A
C2457      C2462   1.402       .  A
C2457      H2463   1.083       .  S
C2458      C2459   1.402       .  A
C2459      C2460   1.401       .  A
C2459      H2464   1.083       .  S
C2460      C2461   1.409       .  A
C2460      H2465   1.084       .  S
C2461      C2462   1.400       .  A
C2462      H2466   1.083       .  S
C2467      C2468   1.409       .  A
C2467      C2472   1.412       .  A
C2467      H2473   1.083       .  S
C2468      C2469   1.406       .  A
C2469      C2470   1.389       .  A
C2469      H2474   1.083       .  S
C2470      C2471   1.402       .  A
C2470      H2475   1.084       .  S
C2471      C2472   1.408       .  A
C2472      H2476   1.083       .  S
C2477      C2478   1.409       .  A
C2477      C2482   1.401       .  A
C2477      H2483   1.084       .  S
C2478      C2479   1.402       .  A
C2479      C2480   1.403       .  A
C2479      H2484   1.083       .  S
C2480      C2481   1.410       .  A
C2480      H2485   1.083       .  S
C2481      C2482   1.402       .  A
C2482      H2486   1.083       .  S
C2487      C2488   1.410       .  A
C2487      C2492   1.405       .  A
C2487      H2493   1.083       .  S
C2488      C2489   1.406       .  A
C2489      C2490   1.405       .  A
C2490      C2491   1.410       .  A
C2490      H2495   1.083       .  S
C2491      C2492   1.406       .  A
C2492      H2496   1.083       .  S
