geometry optimzed in LAMMPS
_audit_creation_date              2020-12-01 
_audit_creation_method            'lammps2cif' 
_symmetry_space_group_name_H-M    'P1' 
_symmetry_Int_Tables_number       1 
_symmetry_cell_setting            triclinic 
loop_ 
_symmetry_equiv_pos_as_xyz 
  x,y,z 
_cell_length_a                    40.54065192 
_cell_length_b                    40.77579711767588 
_cell_length_c                    36.81874131764023 
_cell_angle_alpha                 89.54215769813369 
_cell_angle_beta                  90.0426041246642 
_cell_angle_gamma                 89.91505044545113 
loop_ 
_atom_site_label 
_atom_site_type_symbol 
_atom_site_fract_x 
_atom_site_fract_y 
_atom_site_fract_z 
_atom_site_charge 
Fe1        Fe  0.08566140  0.43300396  0.53555319     1.65800
Fe2        Fe  0.12378964  0.44289199  0.61587132     1.73200
Fe3        Fe  0.09933724  0.00230336  0.55826557     1.54400
O4          O  0.12965204  0.49537458  0.50483192    -0.80400
O5          O  0.09640600  0.47642080  0.64195442    -0.78700
O6          O  0.11867416  0.44206258  0.49516985    -0.82900
O7          O  0.05485298  0.47014254  0.51286231    -0.77700
O8          O  0.16596375  0.50412614  0.57149401    -0.79500
O9          O  0.08474508  0.41068493  0.62045621    -0.82200
C10         C  0.05008809  0.50059472  0.51886355     0.98500
C11         C  0.13052600  0.46957685  0.48552386     1.06000
O12         O  0.10922437  0.46121019  0.56916167    -1.11200
O13         O  0.15112624  0.40731768  0.59173462    -0.73700
O14         O  0.11307536  0.39074813  0.55221331    -0.77100
O15         O  0.05240510  0.00569602  0.53422289    -0.77800
C16         C  0.13811801  0.38509142  0.57265136     0.97400
O17         O  0.05123772  0.42427029  0.57484131    -0.75800
O18         O  0.16547613  0.47222183  0.62068279    -0.81000
C19         C  0.07975752  0.00444430  0.63935085     1.00100
C20         C  0.17963464  0.49274611  0.59994334     1.06000
O21         O  0.08020274  0.01797008  0.60800429    -0.76600
C22         C  0.05675249  0.41069776  0.60537284     1.04300
Fe23       Fe  0.44309716  0.36143842  0.52358485     1.65800
Fe24       Fe  0.40893018  0.34563845  0.60567295     1.73200
Fe25       Fe  0.42198254  0.28301214  0.54588625     1.54400
O26         O  0.40360983  0.29479581  0.49477226    -0.80400
O27         O  0.43718132  0.31230960  0.63200561    -0.78700
O28         O  0.40979473  0.34890532  0.48406226    -0.82900
O29         O  0.47709608  0.32893555  0.50007629    -0.77700
O30         O  0.37358419  0.27906325  0.56420011    -0.79500
O31         O  0.44636126  0.37891645  0.61103826    -0.82200
C32         C  0.48517951  0.29883608  0.50284429     0.98500
C33         C  0.39958830  0.32054365  0.47531060     1.06000
O34         O  0.42442975  0.32976156  0.55816510    -1.11200
O35         O  0.37943242  0.38108357  0.58379274    -0.73700
O36         O  0.41310650  0.40072474  0.54138234    -0.77100
O37         O  0.46966003  0.27938711  0.52397679    -0.77800
C38         C  0.38999622  0.40456765  0.56451178     0.97400
O39         O  0.47752759  0.37425618  0.56128877    -0.75800
O40         O  0.36893240  0.31507149  0.60891910    -0.81000
C41         C  0.44371289  0.28230013  0.62728906     1.00100
C42         C  0.35786762  0.29147541  0.59058323     1.06000
O43         O  0.43966084  0.26772252  0.59700922    -0.76600
C44         C  0.47247521  0.38426513  0.59339030     1.04300
Fe45       Fe  0.23561018  0.21482995  0.68161076     1.65800
Fe46       Fe  0.15768492  0.24089385  0.66356125     1.73200
Fe47       Fe  0.21909553  0.25130792  0.60135646     1.54400
O48         O  0.25534510  0.27944204  0.62286644    -0.80400
O49         O  0.13999532  0.22536669  0.61272953    -0.78700
O50         O  0.27560677  0.24283996  0.66205912    -0.82900
O51         O  0.24369587  0.18037509  0.64298295    -0.77700
O52         O  0.18879715  0.29232735  0.59824657    -0.79500
O53         O  0.15209553  0.19318458  0.68470687    -0.82200
C54         C  0.25336008  0.18520044  0.61064197     0.98500
C55         C  0.27908364  0.26745283  0.64082510     1.06000
O56         O  0.20381767  0.23609164  0.64920877    -1.11200
O57         O  0.17269792  0.25697130  0.71426575    -0.73700
O58         O  0.22719359  0.24798324  0.72169697    -0.77100
O59         O  0.25168861  0.21276020  0.59477032    -0.77800
C60         C  0.19959259  0.25916727  0.73220019     0.97400
O61         O  0.20199792  0.18302110  0.70683360    -0.75800
O62         O  0.15602621  0.28969484  0.64648163    -0.81000
C63         C  0.15423555  0.21962158  0.58244425     1.00100
C64         C  0.16712463  0.30473900  0.61872912     1.06000
O65         O  0.18474489  0.22372789  0.57715075    -0.76600
C66         C  0.17136974  0.17654837  0.70508935     1.04300
Fe67       Fe  0.29353767  0.07168260  0.67958875     1.65800
Fe68       Fe  0.37104215  0.04831676  0.65538693     1.73200
Fe69       Fe  0.30585358  0.03682482  0.59752332     1.54400
O70         O  0.27016285  0.00860827  0.62098742    -0.80400
O71         O  0.38505984  0.06562669  0.60426107    -0.78700
O72         O  0.25318334  0.04227217  0.66437309    -0.82900
O73         O  0.28036404  0.10608446  0.64214921    -0.77700
O74         O  0.33564227  0.99565953  0.59348272    -0.79500
O75         O  0.37663529  0.09562224  0.67708070    -0.82200
C76         C  0.26994112  0.10203572  0.61003872     0.98500
C77         C  0.24817797  0.01873516  0.64248278     1.06000
O78         O  0.32375181  0.05199446  0.64436632    -1.11200
O79         O  0.36048222  0.03064929  0.70663614    -0.73700
O80         O  0.30664413  0.03879948  0.71879352    -0.77100
O81         O  0.27335158  0.07567222  0.59255479    -0.77800
C82         C  0.33514357  0.02806159  0.72684906     0.97400
O83         O  0.32752514  0.10474693  0.70151047    -0.75800
O84         O  0.37330798  0.99994871  0.63710769    -0.81000
C85         C  0.36969290  0.06976080  0.57436491     1.00100
C86         C  0.36525159  0.48291308  0.61578724     1.06000
O87         O  0.33934557  0.06373879  0.57004240    -0.76600
C88         C  0.35793420  0.11176146  0.69827735     1.04300
Fe89       Fe  0.32802179  0.42079127  0.92552441     1.65800
Fe90       Fe  0.35439771  0.49935818  0.90977753     1.73200
Fe91       Fe  0.36567634  0.44017220  0.84527257     1.54400
O92         O  0.38715702  0.39732020  0.86127966    -0.80400
O93         O  0.34846771  0.02274824  0.85520935    -0.78700
O94         O  0.35663576  0.38062716  0.90772141    -0.82900
O95         O  0.29362900  0.41317522  0.88599672    -0.77700
O96         O  0.41117973  0.46301033  0.84955345    -0.79500
O97         O  0.31278798  0.01451156  0.92361682    -0.82200
C98         C  0.29533505  0.41199180  0.85159797     0.98500
C99         C  0.37845027  0.37539402  0.88354633     1.06000
O100        O  0.34967071  0.45349726  0.89376030    -1.11200
O101        O  0.37449188  0.48204587  0.95790902    -0.73700
O102        O  0.36113830  0.42881617  0.96639578    -0.77100
O103        O  0.32139002  0.41747707  0.83346377    -0.77800
C104        C  0.37571867  0.45502977  0.97562482     0.97400
O105        O  0.29496515  0.45324588  0.95064327    -0.75800
O106        O  0.40187502  0.50325862  0.88885416    -0.81000
C107        C  0.34071309  0.00780910  0.82615797     1.00100
C108        C  0.42027055  0.48856699  0.86624172     1.06000
O109        O  0.34718372  0.48050449  0.82233137    -0.76600
C110        C  0.28996853  0.48399744  0.95214541     1.04300
Fe111      Fe  0.19632314  0.35309973  0.92473218     1.65800
Fe112      Fe  0.16786498  0.27650642  0.90804342     1.73200
Fe113      Fe  0.15880354  0.33524557  0.84593972     1.54400
O114        O  0.15203258  0.38387605  0.85733544    -0.80400
O115        O  0.19508418  0.26132592  0.86301879    -0.78700
O116        O  0.16004300  0.38901482  0.91646346    -0.82900
O117        O  0.22357073  0.37032106  0.88081891    -0.77700
O118        O  0.11121832  0.32500593  0.86065357    -0.79500
O119        O  0.21095205  0.27251865  0.93958464    -0.82200
C120        C  0.22707748  0.36192358  0.84762745     0.98500
C121        C  0.14969271  0.40020540  0.88620949     1.06000
O122        O  0.17420713  0.32200000  0.89382909    -1.11200
O123        O  0.14286116  0.29173072  0.95346260    -0.73700
O124        O  0.17108255  0.33676348  0.97026233    -0.77100
O125        O  0.20638686  0.34466967  0.83040117    -0.77800
C126        C  0.15027314  0.31394336  0.97627487     0.97400
O127        O  0.23510307  0.32139863  0.93750325    -0.75800
O128        O  0.12213530  0.27387651  0.87937549    -0.81000
C129        C  0.18675940  0.27021794  0.83124530     1.00100
C130        C  0.10232681  0.29554340  0.86624532     1.06000
O131        O  0.16244743  0.28894699  0.82664799    -0.76600
C132        C  0.23499011  0.29136704  0.94713008     1.04300
Fe133      Fe  0.04962497  0.07987845  0.78692968     1.65800
Fe134      Fe  0.06502800  0.03790617  0.86387480     1.73200
Fe135      Fe  0.12753091  0.05283543  0.80365395     1.54400
O136        O  0.11101441  0.03526416  0.75397622    -0.80400
O137        O  0.10217286  0.05892450  0.88979737    -0.78700
O138        O  0.05645888  0.04612414  0.74667871    -0.82900
O139        O  0.08318056  0.11035062  0.75995050    -0.77700
O140        O  0.14028032  0.50406997  0.83251160    -0.79500
O141        O  0.03797828  0.08021073  0.87467611    -0.82200
C142        C  0.11379394  0.11653464  0.76090425     0.98500
C143        C  0.08365680  0.03321087  0.73659586     1.06000
O144        O  0.08110401  0.05630046  0.81780949    -1.11200
O145        O  0.02551939  0.01454918  0.84156087    -0.73700
O146        O  0.00736378  0.05540671  0.80747291    -0.77100
O147        O  0.13304160  0.09998155  0.78119497    -0.77800
C148        C  0.00200918  0.02993528  0.82684517     0.97400
O149        O  0.04547203  0.11379896  0.82692945    -0.75800
O150        O  0.09141094  0.99423962  0.86159439    -0.81000
C151        C  0.13109964  0.06924806  0.88491388     1.00100
C152        C  0.12084195  0.48272741  0.84633436     1.06000
O153        O  0.14503060  0.07005988  0.85380075    -0.76600
C154        C  0.03818835  0.10858778  0.86000550     1.04300
Fe155      Fe  0.48181677  0.20910984  0.77496852     1.65800
Fe156      Fe  0.46674459  0.24292028  0.85685061     1.73200
Fe157      Fe  0.40415489  0.23471075  0.79513883     1.54400
O158        O  0.41863570  0.25230263  0.74432054    -0.80400
O159        O  0.43076298  0.21790452  0.88184631    -0.78700
O160        O  0.47313148  0.24415518  0.73597717    -0.82900
O161        O  0.44721940  0.17884139  0.74916266    -0.77700
O162        O  0.40304211  0.28282888  0.81303516    -0.79500
O163        O  0.49561981  0.20091624  0.86343924    -0.82200
C164        C  0.41671483  0.17193086  0.75183638     0.98500
C165        C  0.44530451  0.25568795  0.72613443     1.06000
O166        O  0.45066325  0.22945241  0.80872404    -1.11200
O167        O  0.50518586  0.26961812  0.83658871    -0.73700
O168        O  0.02162060  0.22584363  0.80601063    -0.77100
O169        O  0.39801631  0.18754471  0.77348848    -0.77800
C170        C  0.02724993  0.25125595  0.82496519     0.97400
O171        O  0.48882115  0.17264342  0.81230267    -0.75800
O172        O  0.43884607  0.28594069  0.85881573    -0.81000
C173        C  0.40031249  0.21368375  0.87681675     1.00100
C174        C  0.41584567  0.29807582  0.83947154     1.06000
O175        O  0.38625803  0.21841534  0.84609060    -0.76600
C176        C  0.49524108  0.17419629  0.84591500     1.04300
Fe177      Fe  0.33172844  0.17355339  0.02909785     1.65800
Fe178      Fe  0.36888720  0.19148365  0.10853768     1.73200
Fe179      Fe  0.36023796  0.25036837  0.04637307     1.54400
O180        O  0.38373025  0.23533084  0.99970114    -0.80400
O181        O  0.36619741  0.23743779  0.12892501    -0.78700
O182        O  0.35791405  0.18867480  0.98364082    -0.82900
O183        O  0.29375676  0.20567605  0.01462584    -0.77700
O184        O  0.40667223  0.25190024  0.07359964    -0.79500
O185        O  0.32095242  0.18265276  0.12349330    -0.82200
C186        C  0.29313968  0.23616223  0.00704474     0.98500
C187        C  0.37747098  0.21245461  0.97720688     1.06000
O188        O  0.35381154  0.20480195  0.06034166    -1.11200
O189        O  0.37519933  0.14287757  0.09753082    -0.73700
O190        O  0.36697516  0.13656331  0.03866863    -0.77100
O191        O  0.31642826  0.25527616  0.01633591    -0.77800
C192        C  0.37722448  0.12584482  0.06920499     0.97400
O193        O  0.30326980  0.15783129  0.07267958    -0.75800
O194        O  0.41683413  0.20120746  0.09450329    -0.81000
C195        C  0.34351425  0.25806813  0.12435049     1.00100
C196        C  0.42617857  0.23029450  0.08741328     1.06000
O197        O  0.33465235  0.26633022  0.09250404    -0.76600
C198        C  0.29979015  0.16624267  0.10587051     1.04300
Fe199      Fe  0.05456586  0.32136255  0.18110746     1.65800
Fe200      Fe  0.12978735  0.29257700  0.15838258     1.73200
Fe201      Fe  0.06605623  0.28611591  0.09965125     1.54400
O202        O  0.03049868  0.25748835  0.12275146    -0.80400
O203        O  0.14556957  0.30440907  0.10538435    -0.78700
O204        O  0.01278457  0.29356528  0.16359625    -0.82900
O205        O  0.04533351  0.35666137  0.14295988    -0.77700
O206        O  0.09695983  0.24491205  0.09432196    -0.79500
O207        O  0.13751485  0.34094968  0.17381556    -0.82200
C208        C  0.03147462  0.35200836  0.11262175     0.98500
C209        C  0.00769508  0.26929366  0.14226288     1.06000
O210        O  0.08354612  0.29935325  0.14689348    -1.11200
O211        O  0.11807714  0.27962257  0.21181785    -0.73700
O212        O  0.06396069  0.28791886  0.22117989    -0.77100
O213        O  0.03266189  0.32483396  0.09621242    -0.77800
C214        C  0.09208519  0.27762777  0.23131704     0.97400
O215        O  0.09141748  0.35209285  0.20392738    -0.75800
O216        O  0.12695617  0.24344330  0.14490524    -0.81000
C217        C  0.13038270  0.31364852  0.07665683     1.00100
C218        C  0.11670378  0.23024717  0.11588791     1.06000
O219        O  0.09932532  0.31503360  0.07451546    -0.76600
C220        C  0.12169633  0.35799520  0.19677912     1.04300
Fe221      Fe  0.19894911  0.09958858  0.03473703     1.65800
Fe222      Fe  0.16164753  0.09071058  0.11564169     1.73200
Fe223      Fe  0.16173810  0.02785786  0.05649096     1.54400
O224        O  0.14979125  0.04273645  0.00413601    -0.80400
O225        O  0.18691925  0.05446234  0.13983294    -0.78700
O226        O  0.16501960  0.09520934  0.99472590    -0.82900
O227        O  0.22578418  0.06034023  0.01111983    -0.77700
O228        O  0.11265158  0.03493506  0.07139037    -0.79500
O229        O  0.20437321  0.11872430  0.11981622    -0.82200
C230        C  0.22829420  0.02954422  0.01726546     0.98500
C231        C  0.15109796  0.06893331  0.98493690     1.06000
O232        O  0.17327426  0.07267724  0.06833137    -1.11200
O233        O  0.13677016  0.12896303  0.09274314    -0.73700
O234        O  0.17518649  0.14369185  0.05251471    -0.77100
O235        O  0.20918788  0.01510856  0.03962086    -0.77800
C236        C  0.15043171  0.15053151  0.07293394     0.97400
O237        O  0.23486444  0.10277114  0.07308590    -0.75800
O238        O  0.11712667  0.06474720  0.12138075    -0.81000
C239        C  0.18339992  0.02384564  0.13718719     1.00100
C240        C  0.10056187  0.04618847  0.10064750     1.06000
O241        O  0.17274384  0.00986892  0.10862587    -0.76600
C242        C  0.23208464  0.11421495  0.10469028     1.04300
Fe243      Fe  0.48174991  0.46107107  0.17331186     1.65800
Fe244      Fe  0.40230117  0.48259478  0.15379797     1.73200
Fe245      Fe  0.46465062  0.49918789  0.09299202     1.54400
O246        O  0.00252595  0.52910824  0.12551756    -0.80400
O247        O  0.38673348  0.46359130  0.10426311    -0.78700
O248        O  0.01895042  0.49153617  0.16579801    -0.82900
O249        O  0.49482224  0.42855467  0.13411529    -0.77700
O250        O  0.43306795  0.03594744  0.09501824    -0.79500
O251        O  0.39893957  0.43575072  0.17720746    -0.82200
C252        C  0.50296023  0.43399478  0.10130301     0.98500
C253        C  0.02013725  0.01752846  0.14891019     1.06000
O254        O  0.44940153  0.48117739  0.14021048    -1.11200
O255        O  0.41430010  0.99853315  0.20924957    -0.73700
O256        O  0.46915242  0.49263206  0.21378140    -0.77100
O257        O  0.49612428  0.46015432  0.08405985    -0.77800
C258        C  0.44032442  0.00267044  0.22818129     0.97400
O259        O  0.44970372  0.42588557  0.19660624    -0.75800
O260        O  0.39787791  0.02951010  0.14079775    -0.81000
C261        C  0.40044125  0.46289692  0.07315700     1.00100
C262        C  0.40913707  0.04588969  0.11413656     1.06000
O263        O  0.42891545  0.47428947  0.06699646    -0.76600
C264        C  0.41904627  0.41899798  0.19625692     1.04300
Fe265      Fe  0.44191383  0.10669634  0.42894388     1.65800
Fe266      Fe  0.41914764  0.02903542  0.40765667     1.73200
Fe267      Fe  0.40633694  0.09245059  0.34766484     1.54400
O268        O  0.37783580  0.12821657  0.36996553    -0.80400
O269        O  0.43622604  0.01396156  0.35672213    -0.78700
O270        O  0.41310578  0.14697309  0.41092518    -0.82900
O271        O  0.47692658  0.11812353  0.39133010    -0.77700
O272        O  0.36492922  0.06248275  0.34499520    -0.79500
O273        O  0.46694483  0.02417110  0.42932665    -0.82200
C274        C  0.47197724  0.12910085  0.35944220     0.98500
C275        C  0.38907816  0.15128350  0.38900021     1.06000
O276        O  0.42225102  0.07573779  0.39489048    -1.11200
O277        O  0.40130294  0.04104725  0.45849967    -0.73700
O278        O  0.40790150  0.09521397  0.46774932    -0.77100
O279        O  0.44526078  0.12508117  0.34212927    -0.77800
C280        C  0.39723757  0.06706505  0.47699774     0.97400
O281        O  0.47464727  0.07319929  0.45339403    -0.75800
O282        O  0.37048477  0.02622052  0.39001026    -0.81000
C283        C  0.43998928  0.02878046  0.32632906     1.00100
C284        C  0.35394225  0.03899893  0.36421026     1.06000
O285        O  0.43346936  0.05881802  0.32126428    -0.76600
C286        C  0.48240003  0.04306574  0.45080744     1.04300
Fe287      Fe  0.08363085  0.17856382  0.43603768     1.65800
Fe288      Fe  0.11011384  0.25481475  0.41265942     1.73200
Fe289      Fe  0.11659675  0.19135952  0.35328196     1.54400
O290        O  0.14604606  0.15582401  0.37527967    -0.80400
O291        O  0.09501669  0.27076407  0.36062076    -0.78700
O292        O  0.11190367  0.13789666  0.41839430    -0.82900
O293        O  0.04746625  0.16828882  0.39940163    -0.77700
O294        O  0.15750740  0.22133926  0.34656945    -0.79500
O295        O  0.06243109  0.26238371  0.43421328    -0.82200
C296        C  0.05137323  0.15623255  0.36810978     0.98500
C297        C  0.13557186  0.13324628  0.39605381     1.06000
O298        O  0.10378793  0.20851870  0.40100101    -1.11200
O299        O  0.12667575  0.24242452  0.46422883    -0.73700
O300        O  0.11797671  0.18873442  0.47484819    -0.77100
O301        O  0.07802779  0.15843021  0.35051469    -0.77800
C302        C  0.12932783  0.21654328  0.48368471     0.97400
O303        O  0.05240049  0.21363403  0.45926070    -0.75800
O304        O  0.15896436  0.25354913  0.39494498    -0.81000
C305        C  0.08746273  0.25579393  0.33136443     1.00100
C306        C  0.17201023  0.24216352  0.36626452     1.06000
O307        O  0.08755046  0.22491238  0.32852960    -0.76600
C308        C  0.04598170  0.24409075  0.45592453     1.04300
Fe309      Fe  0.29572759  0.31990733  0.27355147     1.65800
Fe310      Fe  0.30981983  0.28431102  0.35519191     1.73200
Fe311      Fe  0.37311992  0.29407333  0.29481371     1.54400
O312        O  0.35993650  0.27768225  0.24357429    -0.80400
O313        O  0.34384766  0.31167749  0.38088651    -0.78700
O314        O  0.30582021  0.28664433  0.23368406    -0.82900
O315        O  0.33043703  0.35184190  0.24962379    -0.77700
O316        O  0.37390371  0.24536521  0.31244601    -0.79500
O317        O  0.27685136  0.32272828  0.35988600    -0.82200
C318        C  0.36114062  0.35820884  0.25204399     0.98500
C319        C  0.33381236  0.27547673  0.22432771     1.06000
O320        O  0.32652546  0.29913139  0.30756690    -1.11200
O321        O  0.27387691  0.25606150  0.33291947    -0.73700
O322        O  0.25484643  0.29172068  0.29198795    -0.77100
O323        O  0.37983497  0.34158345  0.27311285    -0.77800
C324        C  0.25047039  0.26785338  0.31422241     0.97400
O325        O  0.28555261  0.35467899  0.31142628    -0.75800
O326        O  0.33978146  0.24330028  0.35958412    -0.81000
C327        C  0.37449387  0.31575405  0.37621491     1.00100
C328        C  0.36191533  0.23061649  0.33995185     1.06000
O329        O  0.38922837  0.30992676  0.34620744    -0.76600
C330        C  0.27365914  0.34956509  0.34279783     1.04300
Fe331      Fe  0.21796146  0.46179204  0.27760395     1.65800
Fe332      Fe  0.21113032  0.49787754  0.35876057     1.73200
Fe333      Fe  0.14443097  0.49262358  0.30386383     1.54400
O334        O  0.15908653  0.00330854  0.25686541    -0.80400
O335        O  0.17860696  0.46979700  0.38600181    -0.78700
O336        O  0.20731171  0.49497924  0.23802374    -0.82900
O337        O  0.17957161  0.43191360  0.25713633    -0.77700
O338        O  0.15207517  0.03972928  0.32321288    -0.79500
O339        O  0.24406457  0.45908349  0.36060736    -0.82200
C340        C  0.14932324  0.42692166  0.26510682     0.98500
C341        C  0.18460916  0.00438183  0.23680490     1.06000
O342        O  0.19097351  0.48465789  0.31289578    -1.11200
O343        O  0.24996672  0.02310902  0.34268811    -0.73700
O344        O  0.26110404  0.48871758  0.29235338    -0.77100
O345        O  0.13453608  0.44444373  0.28851091    -0.77800
C346        C  0.27157579  0.01090998  0.32195398     0.97400
O347        O  0.22821883  0.42669063  0.31562304    -0.75800
O348        O  0.18513948  0.03927316  0.37144607    -0.81000
C349        C  0.14747614  0.47130175  0.38524506     1.00100
C350        C  0.16456642  0.05361747  0.35071492     1.06000
O351        O  0.13111393  0.48092057  0.35749263    -0.76600
C352        C  0.24389299  0.43168777  0.34480462     1.04300
C353        C  0.25329750  0.37507014  0.35828361    -0.15100
C354        C  0.26486867  0.40554956  0.35845112    -0.30300
H355        H  0.22684969  0.37067599  0.35877881     0.13900
H356        H  0.29131239  0.40998710  0.35828222     0.14500
C357        C  0.20569900  0.25308178  0.35610949    -0.15100
C358        C  0.21673393  0.25531877  0.32143939    -0.30300
H359        H  0.22166938  0.26112712  0.37803131     0.13900
H360        H  0.20018066  0.25069943  0.29885211     0.14500
C361        C  0.14955692  0.09986178  0.39172236    -0.15100
C362        C  0.15487002  0.08795771  0.35806164    -0.30300
H363        H  0.15176985  0.08383156  0.41530105     0.13900
H364        H  0.14889705  0.10324222  0.33462622     0.14500
C365        C  0.49774822  0.14915093  0.34342408    -0.15100
C366        C  0.02453728  0.13712500  0.35323103    -0.30300
H367        H  0.49400849  0.17554269  0.34440088     0.13900
H368        H  0.02803377  0.11070287  0.35220817     0.14500
C369        C  0.37548796  0.18463943  0.38290447    -0.15100
C370        C  0.37381324  0.19706524  0.34874720    -0.30300
H371        H  0.36959322  0.19988974  0.40606809     0.13900
H372        H  0.38312654  0.18249281  0.32636442     0.14500
C373        C  0.30569367  0.02396677  0.32471143    -0.15100
C374        C  0.32003127  0.02659741  0.35777657    -0.30300
H375        H  0.31958873  0.02940335  0.30019639     0.13900
H376        H  0.30664629  0.01774456  0.38147760     0.14500
C377        C  0.40677470  0.39084330  0.21983897    -0.15100
C378        C  0.37447075  0.38600960  0.22873378    -0.30300
H379        H  0.42513989  0.37445735  0.23150742     0.13900
H380        H  0.35628802  0.40247592  0.21683612     0.14500
C381        C  0.43646458  0.02050590  0.26185757    -0.15100
C382        C  0.44952862  0.01058259  0.29374624    -0.30300
H383        H  0.41909794  0.04086646  0.26096296     0.13900
H384        H  0.46388355  0.98812789  0.29587257     0.14500
C385        C  0.18939536  0.00529606  0.17057001    -0.15100
C386        C  0.18110017  0.02003103  0.20179535    -0.30300
H387        H  0.19829167  0.98015396  0.16996883     0.13900
H388        H  0.15885739  0.54046815  0.19024729     0.14500
C389        C  0.06567901  0.03772228  0.10983646    -0.15100
C390        C  0.05453714  0.03005028  0.14368188    -0.30300
H391        H  0.04901532  0.03459767  0.08698691     0.13900
H392        H  0.07166041  0.02938061  0.16637037     0.14500
C393        C  0.12997631  0.40034094  0.24636461    -0.15100
C394        C  0.14020652  0.38499068  0.21574118    -0.30300
H395        H  0.10598171  0.39406371  0.25750531     0.13900
H396        H  0.16421853  0.39141682  0.20473628     0.14500
C397        C  0.09507656  0.26191758  0.26686173    -0.15100
C398        C  0.08145640  0.27398048  0.29742127    -0.30300
H399        H  0.11109263  0.24050522  0.26835160     0.13900
H400        H  0.06852967  0.29734096  0.29743436     0.14500
C401        C  0.02247159  0.40899284  0.09944481    -0.15100
C402        C  0.01099729  0.37840347  0.09825783    -0.30300
H403        H  0.04891225  0.41339434  0.10014735     0.13900
H404        H  0.98458490  0.37396713  0.09702820     0.14500
C405        C  0.13813669  0.18492051  0.07602870    -0.15100
C406        C  0.12726037  0.19604244  0.10850280    -0.30300
H407        H  0.14028968  0.20160640  0.05301846     0.13900
H408        H  0.12870059  0.17980365  0.13200766     0.14500
C409        C  0.32967225  0.27288918  0.15745378    -0.15100
C410        C  0.33714018  0.25877349  0.18977997    -0.30300
H411        H  0.31609110  0.29583046  0.15589689     0.13900
H412        H  0.35150183  0.23626656  0.19089529     0.14500
C413        C  0.26947829  0.15589027  0.12386899    -0.15100
C414        C  0.26247023  0.12402122  0.12250250    -0.30300
H415        H  0.24959018  0.17378173  0.12470498     0.13900
H416        H  0.28292321  0.10694102  0.11936679     0.14500
C417        C  0.46037390  0.23949643  0.09682943    -0.15100
C418        C  0.46711503  0.25972608  0.12477079    -0.30300
H419        H  0.48025788  0.22883518  0.08107308     0.13900
H420        H  0.44684708  0.26986410  0.14042067     0.14500
C421        C  0.39394447  0.07820569  0.10641195    -0.15100
C422        C  0.39215427  0.09262572  0.07316730    -0.30300
H423        H  0.38240552  0.09017057  0.12942655     0.13900
H424        H  0.40128672  0.08000161  0.04933066     0.14500
C425        C  0.38131699  0.20555600  0.90996299    -0.15100
C426        C  0.39456302  0.21405796  0.94236504    -0.30300
H427        H  0.35634212  0.19614121  0.90810352     0.13900
H428        H  0.41833898  0.22630628  0.94333915     0.14500
C429        C  0.14845491  0.07811095  0.91855896    -0.15100
C430        C  0.13469328  0.06810997  0.95024038    -0.30300
H431        H  0.17272406  0.08931899  0.91773577     0.13900
H432        H  0.11167120  0.05451260  0.95076498     0.14500
C433        C  0.02689051  0.13673694  0.88054467    -0.15100
C434        C  0.99496710  0.14360705  0.87720518    -0.30300
H435        H  0.04414950  0.15713756  0.88131310     0.13900
H436        H  0.48372529  0.12401926  0.85834719     0.14500
C437        C  0.26388257  0.27857588  0.96850379    -0.15100
C438        C  0.26418374  0.24915172  0.98594376    -0.30300
H439        H  0.28526066  0.29445717  0.97086520     0.13900
H440        H  0.24288284  0.23319631  0.98338352     0.14500
C441        C  0.13361980  0.31277778  0.01126481    -0.15100
C442        C  0.14847895  0.32032918  0.04288326    -0.30300
H443        H  0.10907523  0.30203717  0.01129975     0.13900
H444        H  0.17418317  0.32779531  0.04369385     0.14500
C445        C  0.06838515  0.28638369  0.85581607    -0.15100
C446        C  0.06168564  0.26073925  0.83397954    -0.30300
H447        H  0.04861559  0.30263407  0.86424930     0.13900
H448        H  0.08176762  0.24559196  0.82403649     0.14500
C449        C  0.13473828  0.43337120  0.88348518    -0.15100
C450        C  0.13360761  0.44917354  0.85112177    -0.30300
H451        H  0.12587926  0.44534706  0.90786878     0.13900
H452        H  0.14525756  0.43826503  0.82753816     0.14500
C453        C  0.26993013  0.01893964  0.96730171    -0.15100
C454        C  0.25382967  0.00907798  0.99781966    -0.30300
H455        H  0.24476945  0.47848485  0.98647217     0.13900
H456        H  0.25856025  0.98454837  0.00832058     0.14500
C457        C  0.39564403  0.45480406  0.00824171    -0.15100
C458        C  0.38231799  0.45063827  0.04143114    -0.30300
H459        H  0.42034620  0.46469008  0.00499856     0.13900
H460        H  0.35684969  0.44279662  0.04444777     0.14500
C461        C  0.26497263  0.40427197  0.83259773    -0.15100
C462        C  0.25702937  0.37277364  0.82929678    -0.30300
H463        H  0.24507058  0.42171620  0.83711910     0.13900
H464        H  0.27639053  0.35452827  0.82627769     0.14500
C465        C  0.45369733  0.50217339  0.86020113    -0.15100
C466        C  0.47150605  0.00807430  0.82432746    -0.30300
H467        H  0.46530435  0.51332884  0.88366171     0.13900
H468        H  0.45719478  0.00258993  0.80018296     0.14500
C469        C  0.39366113  0.34228863  0.87971124    -0.15100
C470        C  0.40372864  0.33171297  0.84672187    -0.30300
H471        H  0.39422779  0.32571584  0.90294496     0.13900
H472        H  0.39977761  0.34736104  0.82307891     0.14500
C473        C  0.40354584  0.14473984  0.72822280    -0.15100
C474        C  0.37110679  0.13946206  0.72113974    -0.30300
H475        H  0.42159594  0.12912694  0.71505406     0.13900
H476        H  0.35306117  0.15506110  0.73434082     0.14500
C477        C  0.38779734  0.07869939  0.54146476    -0.15100
C478        C  0.37888470  0.06378411  0.51056061    -0.30300
H479        H  0.40975129  0.09390193  0.54283235     0.13900
H480        H  0.35920912  0.04564297  0.51072758     0.14500
C481        C  0.33226840  0.02583847  0.79300485    -0.15100
C482        C  0.33953669  0.01153200  0.76119155    -0.30300
H483        H  0.31135404  0.54759551  0.79662837     0.13900
H484        H  0.35245368  0.98814902  0.76032911     0.14500
C485        C  0.15867644  0.14881041  0.72856182    -0.15100
C486        C  0.12644855  0.14393726  0.73691649    -0.30300
H487        H  0.17694113  0.13272794  0.74095931     0.13900
H488        H  0.10818138  0.16004793  0.72457096     0.14500
C489        C  0.13521685  0.21039297  0.55010686    -0.15100
C490        C  0.14738914  0.21951789  0.51746372    -0.30300
H491        H  0.11083676  0.19959145  0.55265239     0.13900
H492        H  0.17012661  0.23355005  0.51561813     0.14500
C493        C  0.19762699  0.27499282  0.76715901    -0.15100
C494        C  0.20310296  0.25830511  0.79834544    -0.30300
H495        H  0.18424793  0.29811869  0.76736894     0.13900
H496        H  0.21574607  0.23480236  0.79858398     0.14500
C497        C  0.25251882  0.12922075  0.59332577    -0.15100
C498        C  0.26830426  0.15782586  0.59190606    -0.30300
H499        H  0.22583295  0.12891935  0.59634995     0.13900
H500        H  0.29503311  0.15831475  0.58946790     0.14500
C501        C  0.01348537  0.28931544  0.48783732    -0.15100
C502        C  0.01820243  0.25734281  0.47898568    -0.30300
H503        H  0.52905911  0.30515717  0.46698026     0.13900
H504        H  0.00171665  0.23927519  0.49094074     0.14500
C505        C  0.39326830  0.32542119  0.40869361    -0.15100
C506        C  0.38128526  0.31670591  0.44156330    -0.30300
H507        H  0.41754578  0.33640910  0.40602298     0.13900
H508        H  0.35868439  0.30249318  0.44360894     0.14500
C509        C  0.45366180  0.26377840  0.66008159    -0.15100
C510        C  0.44308039  0.27471936  0.69256738    -0.30300
H511        H  0.46563482  0.24003961  0.65773350     0.13900
H512        H  0.42796573  0.29671387  0.69404983     0.14500
C513        C  0.32511554  0.27827542  0.60007686    -0.15100
C514        C  0.31220814  0.28060499  0.63375320    -0.30300
H515        H  0.31142201  0.26555255  0.57906116     0.13900
H516        H  0.32646875  0.29065806  0.65601635     0.14500
C517        C  0.37698416  0.43787170  0.57183271    -0.15100
C518        C  0.37611823  0.44924600  0.60635259    -0.30300
H519        H  0.37120473  0.45407245  0.54914255     0.13900
H520        H  0.38524577  0.43373697  0.62832262     0.14500
C521        C  0.00326250  0.02858445  0.48069600    -0.15100
C522        C  0.00677860  0.99718664  0.49271176    -0.30300
H523        H  0.52529856  0.04879716  0.48796697     0.13900
H524        H  0.98926348  0.97894536  0.48342494     0.14500
C525        C  0.07082485  0.02332291  0.67183016    -0.15100
C526        C  0.08440262  0.01386169  0.70369171    -0.30300
H527        H  0.08002746  0.55041586  0.67064249     0.13900
H528        H  0.10079323  0.99273479  0.70489359     0.14500
C529        C  0.13070388  0.46413272  0.41950787    -0.15100
C530        C  0.14629334  0.47215448  0.45040942    -0.30300
H531        H  0.10534106  0.45553610  0.41972415     0.13900
H532        H  0.17014419  0.48432552  0.44965686     0.14500
C533        C  0.49756201  0.40415432  0.60995102    -0.15100
C534        C  0.03020136  0.39226221  0.62216813    -0.30300
H535        H  0.49482009  0.43049835  0.60609354     0.13900
H536        H  0.03366915  0.36589497  0.62474358     0.14500
C537        C  0.21356925  0.50341357  0.60836291    -0.15100
C538        C  0.21488458  0.00438896  0.63933677    -0.30300
H539        H  0.22944858  0.50886668  0.58530576     0.13900
H540        H  0.20261200  0.99471726  0.66333482     0.12900
C541        C  0.15092422  0.35116243  0.57718283    -0.15100
C542        C  0.15497462  0.33843987  0.61099181    -0.30300
H543        H  0.15478495  0.33600975  0.55343192     0.13900
H544        H  0.14762624  0.35302906  0.63422623     0.14500
Fe545      Fe  0.07768025  0.92334454  0.53808500     1.65800
Fe546      Fe  0.11415915  0.93982886  0.61928101     1.73200
Fe547      Fe  0.11654540  0.50720606  0.55748979     1.54400
O548        O  0.11939045  0.99039261  0.50874218    -0.80400
O549        O  0.08940285  0.97540189  0.64532551    -0.78700
O550        O  0.10921801  0.93722991  0.49720865    -0.82900
O551        O  0.04177634  0.95496473  0.51632870    -0.77700
O552        O  0.14727186  0.00724365  0.57762974    -0.79500
O553        O  0.07492428  0.90903861  0.62826468    -0.82200
C554        C  0.03518504  0.98546907  0.51611055     0.98500
C555        C  0.12192283  0.96486521  0.48929968     1.06000
O556        O  0.09704295  0.95532394  0.57177212    -1.11200
O557        O  0.14097375  0.90214962  0.59872407    -0.73700
O558        O  0.10962916  0.88483406  0.55323511    -0.77100
O559        O  0.06811469  0.51615030  0.54112912    -0.77800
C560        C  0.13235390  0.88026238  0.57664549     0.97400
O561        O  0.04502247  0.90815776  0.57712526    -0.75800
O562        O  0.15630509  0.96791915  0.61855271    -0.81000
C563        C  0.09636256  0.50732119  0.63889010     1.00100
C564        C  0.16548005  0.99305139  0.60101940     1.06000
O565        O  0.10447730  0.52256666  0.60987840    -0.76600
C566        C  0.04965091  0.90090918  0.61039073     1.04300
Fe567      Fe  0.44248339  0.86125240  0.52484529     1.65800
Fe568      Fe  0.40611971  0.84764849  0.60601147     1.73200
Fe569      Fe  0.42130183  0.78325642  0.54897691     1.54400
O570        O  0.40312574  0.79400061  0.49779532    -0.80400
O571        O  0.43392232  0.81528646  0.63403623    -0.78700
O572        O  0.40991912  0.84786000  0.48531221    -0.82900
O573        O  0.47691848  0.82819547  0.50236329    -0.77700
O574        O  0.37282899  0.77893444  0.56736362    -0.79500
O575        O  0.44334303  0.88117916  0.61136973    -0.82200
C576        C  0.48473736  0.79798413  0.50520157     0.98500
C577        C  0.39961964  0.81930504  0.47753387     1.06000
O578        O  0.42302863  0.83037061  0.55969259    -1.11200
O579        O  0.37686314  0.88215210  0.58202459    -0.73700
O580        O  0.41208919  0.90116298  0.54089993    -0.77100
O581        O  0.46902059  0.77892849  0.52664736    -0.77800
C582        C  0.38791354  0.90533375  0.56266063     0.97400
O583        O  0.47604541  0.87424448  0.56318329    -0.75800
O584        O  0.36624057  0.81696531  0.60962098    -0.81000
C585        C  0.44144397  0.78536378  0.63051934     1.00100
C586        C  0.35622280  0.79215760  0.59259620     1.06000
O587        O  0.43889635  0.76979028  0.60065145    -0.76600
C588        C  0.47042642  0.88468134  0.59499775     1.04300
Fe589      Fe  0.23550473  0.71249163  0.68314024     1.65800
Fe590      Fe  0.15721841  0.73776136  0.66556659     1.73200
Fe591      Fe  0.21824702  0.74957437  0.60334721     1.54400
O592        O  0.25376812  0.77843770  0.62524062    -0.80400
O593        O  0.13973434  0.72340481  0.61422716    -0.78700
O594        O  0.27479383  0.74211892  0.66441109    -0.82900
O595        O  0.24508479  0.67902002  0.64363824    -0.77700
O596        O  0.18668518  0.78954349  0.60059397    -0.79500
O597        O  0.15212002  0.68981872  0.68523260    -0.82200
C598        C  0.25557423  0.68504399  0.61184952     0.98500
C599        C  0.27777632  0.76685536  0.64317059     1.06000
O600        O  0.20339493  0.73362303  0.65108954    -1.11200
O601        O  0.17154165  0.75282557  0.71682724    -0.73700
O602        O  0.22600406  0.74441752  0.72457387    -0.77100
O603        O  0.25223343  0.71253545  0.59627843    -0.77800
C604        C  0.19819413  0.75516817  0.73509212     0.97400
O605        O  0.20229988  0.67934386  0.70667681    -0.75800
O606        O  0.15548542  0.78669135  0.65003839    -0.81000
C607        C  0.15401735  0.71757391  0.58399240     1.00100
C608        C  0.16555342  0.80171869  0.62187426     1.06000
O609        O  0.18465442  0.72105674  0.57896540    -0.76600
C610        C  0.17168058  0.67282322  0.70481683     1.04300
Fe611      Fe  0.30559105  0.57683972  0.68011578     1.65800
Fe612      Fe  0.37980638  0.54632126  0.65601771     1.73200
Fe613      Fe  0.31416528  0.53770542  0.60074099     1.54400
O614        O  0.28105476  0.50970543  0.62808020    -0.80400
O615        O  0.39336477  0.55641911  0.60210369    -0.78700
O616        O  0.26343825  0.54832056  0.66598394    -0.82900
O617        O  0.29550371  0.60990875  0.63988221    -0.77700
O618        O  0.34480504  0.49732269  0.59513269    -0.79500
O619        O  0.38856574  0.59518614  0.66929343    -0.82200
C620        C  0.28069537  0.60360152  0.61045283     0.98500
C621        C  0.25843900  0.52263806  0.64683510     1.06000
O622        O  0.33341822  0.55309878  0.64620438    -1.11200
O623        O  0.36964451  0.53608243  0.71028173    -0.73700
O624        O  0.31610353  0.54571316  0.72199354    -0.77100
O625        O  0.28012576  0.57531043  0.59679666    -0.77800
C626        C  0.34462730  0.53598212  0.73137278     0.97400
O627        O  0.34313976  0.60831484  0.69966981    -0.75800
O628        O  0.37640280  0.49635149  0.64437522    -0.81000
C629        C  0.37719315  0.56465318  0.57367252     1.00100
C630        C  0.35987205  0.98426903  0.61127428     1.06000
O631        O  0.34604277  0.56559955  0.57230206    -0.76600
C632        C  0.37341835  0.61331592  0.69182316     1.04300
Fe633      Fe  0.33035138  0.93175871  0.92990805     1.65800
Fe634      Fe  0.36103315  0.00597717  0.90733483     1.73200
Fe635      Fe  0.36761824  0.94245065  0.84904399     1.54400
O636        O  0.39400393  0.90549269  0.87263496    -0.80400
O637        O  0.33520057  0.51989234  0.86174034    -0.78700
O638        O  0.35568486  0.88870591  0.91162346    -0.82900
O639        O  0.29455834  0.92672360  0.89158565    -0.77700
O640        O  0.41080663  0.97045215  0.84494666    -0.79500
O641        O  0.30817325  0.50401504  0.93474150    -0.82200
C642        C  0.29787359  0.91687094  0.85927125     0.98500
C643        C  0.38081606  0.88298381  0.89141400     1.06000
O644        O  0.35382053  0.96020216  0.89585446    -1.11200
O645        O  0.37467158  0.99251071  0.95978733    -0.73700
O646        O  0.36510420  0.93864572  0.96895837    -0.77100
O647        O  0.32582619  0.91309781  0.84429380    -0.77800
C648        C  0.37684174  0.96611989  0.97860195     0.97400
O649        O  0.30139163  0.96919692  0.95465088    -0.75800
O650        O  0.41011325  0.00336959  0.89286843    -0.81000
C651        C  0.33732191  0.50898212  0.82949233     1.00100
C652        C  0.42440230  0.99159695  0.86523207     1.06000
O653        O  0.34175111  0.97707186  0.82300127    -0.76600
C654        C  0.29594317  0.99943973  0.94748125     1.04300
Fe655      Fe  0.19692587  0.85837676  0.92870224     1.65800
Fe656      Fe  0.17011724  0.78107354  0.91202480     1.73200
Fe657      Fe  0.16154724  0.83948446  0.84908473     1.54400
O658        O  0.15473160  0.88850093  0.85921044    -0.80400
O659        O  0.19646966  0.76500952  0.86661689    -0.78700
O660        O  0.16018366  0.89396321  0.91853964    -0.82900
O661        O  0.22496956  0.87505593  0.88527365    -0.77700
O662        O  0.11360072  0.82961099  0.86319607    -0.79500
O663        O  0.21379142  0.77726909  0.94300193    -0.82200
C664        C  0.22966852  0.86615232  0.85242166     0.98500
C665        C  0.15065540  0.90491442  0.88776582     1.06000
O666        O  0.17616371  0.82654514  0.89750586    -1.11200
O667        O  0.14536566  0.79591840  0.95782154    -0.73700
O668        O  0.17104977  0.84252032  0.97400129    -0.77100
O669        O  0.20963475  0.84848187  0.83469486    -0.77800
C670        C  0.15141663  0.81877491  0.98027085     0.97400
O671        O  0.23588789  0.82719944  0.94341388    -0.75800
O672        O  0.12411853  0.77894728  0.88408376    -0.81000
C673        C  0.18775199  0.77279200  0.83459475     1.00100
C674        C  0.10439569  0.80050771  0.87052919     1.06000
O675        O  0.16488272  0.79317690  0.82945698    -0.76600
C676        C  0.23692782  0.79683796  0.95184870     1.04300
Fe677      Fe  0.05628693  0.57341391  0.78792179     1.65800
Fe678      Fe  0.07619728  0.53609649  0.86772013     1.73200
Fe679      Fe  0.13488688  0.54941040  0.80554363     1.54400
O680        O  0.12115958  0.52428860  0.76004810    -0.80400
O681        O  0.12191905  0.54375840  0.88833999    -0.78700
O682        O  0.07304391  0.54792342  0.74354479    -0.82900
O683        O  0.08636052  0.61296683  0.77299842    -0.77700
O684        O  0.13175555  0.00468729  0.82230274    -0.79500
O685        O  0.06211948  0.58255030  0.88268019    -0.82200
C686        C  0.11674058  0.61447550  0.76448507     0.98500
C687        C  0.09756193  0.52912792  0.73778031     1.06000
O688        O  0.08870772  0.55270208  0.81959096    -1.11200
O689        O  0.02807221  0.52479086  0.85509726    -0.73700
O690        O  0.02098716  0.53676783  0.79681755    -0.77100
O691        O  0.13700670  0.59234002  0.77431141    -0.77800
C692        C  0.01095256  0.52400534  0.82640105     0.97400
O693        O  0.03855316  0.60058339  0.83089461    -0.75800
O694        O  0.09129117  0.48938924  0.85528707    -0.81000
C695        C  0.14059632  0.56793190  0.88294073     1.00100
C696        C  0.11745734  0.98588064  0.84499438     1.06000
O697        O  0.14895086  0.57629965  0.85099589    -0.76600
C698        C  0.04516601  0.60324965  0.86469019     1.04300
Fe699      Fe  0.47218042  0.71283915  0.77687679     1.65800
Fe700      Fe  0.46323897  0.74433520  0.86043138     1.73200
Fe701      Fe  0.39939352  0.74607297  0.80149538     1.54400
O702        O  0.41266322  0.75997765  0.74888386    -0.80400
O703        O  0.42724315  0.71790662  0.88361395    -0.78700
O704        O  0.46646046  0.74946141  0.73963881    -0.82900
O705        O  0.43282324  0.68701739  0.75176768    -0.77700
O706        O  0.40601967  0.79419262  0.81731411    -0.79500
O707        O  0.49107251  0.70113334  0.86230230    -0.82200
C708        C  0.40250238  0.68214183  0.75960787     0.98500
C709        C  0.43903545  0.76178054  0.72996371     1.06000
O710        O  0.44498651  0.73535749  0.81245002    -1.11200
O711        O  0.50172402  0.77041654  0.83947328    -0.73700
O712        O  0.02573462  0.72858140  0.81239341    -0.77100
O713        O  0.38813133  0.69889632  0.78397267    -0.77800
C714        C  0.02963344  0.75320748  0.83318367     0.97400
O715        O  0.47613121  0.67471331  0.81235590    -0.75800
O716        O  0.43666989  0.78846528  0.86722706    -0.81000
C717        C  0.39660742  0.72276410  0.88220101     1.00100
C718        C  0.41762511  0.80535870  0.84678773     1.06000
O719        O  0.38215588  0.73414159  0.85397679    -0.76600
C720        C  0.48607559  0.67482949  0.84485693     1.04300
Fe721      Fe  0.33468393  0.68041639  0.03446170     1.65800
Fe722      Fe  0.37132179  0.69681620  0.11419195     1.73200
Fe723      Fe  0.36376463  0.75656429  0.05242414     1.54400
O724        O  0.38823397  0.74188579  0.00644406    -0.80400
O725        O  0.36819974  0.74276213  0.13454819    -0.78700
O726        O  0.35952211  0.69739098  0.98921050    -0.82900
O727        O  0.29603881  0.71248207  0.02212124    -0.77700
O728        O  0.41000702  0.75785217  0.08088445    -0.79500
O729        O  0.32311941  0.68766075  0.12856838    -0.82200
C730        C  0.29614136  0.74264664  0.01289314     0.98500
C731        C  0.38005653  0.72036983  0.98318090     1.06000
O732        O  0.35682735  0.71098541  0.06612088    -1.11200
O733        O  0.37776584  0.64815023  0.10182566    -0.73700
O734        O  0.37103285  0.64438471  0.04234110    -0.77100
O735        O  0.32018813  0.76144522  0.02098248    -0.77800
C736        C  0.38069673  0.63243118  0.07255625     0.97400
O737        O  0.30726044  0.66228260  0.07757303    -0.75800
O738        O  0.41954368  0.70683819  0.10121810    -0.81000
C739        C  0.34506892  0.76287131  0.12963275     1.00100
C740        C  0.42928832  0.73592431  0.09465817     1.06000
O741        O  0.33718168  0.77196821  0.09779109    -0.76600
C742        C  0.30289855  0.67032753  0.11069728     1.04300
Fe743      Fe  0.05519792  0.82449160  0.18486926     1.65800
Fe744      Fe  0.12974735  0.79404719  0.16251535     1.73200
Fe745      Fe  0.06619789  0.78884111  0.10372747     1.54400
O746        O  0.03019690  0.76099535  0.12690504    -0.80400
O747        O  0.14598396  0.80494734  0.10936554    -0.78700
O748        O  0.01258715  0.79781898  0.16692481    -0.82900
O749        O  0.04690657  0.86002658  0.14653171    -0.77700
O750        O  0.09614693  0.74727026  0.09899282    -0.79500
O751        O  0.13877287  0.84223491  0.17719702    -0.82200
C752        C  0.03263850  0.85517905  0.11640256     0.98500
C753        C  0.00727788  0.77352273  0.14562257     1.06000
O754        O  0.08378250  0.80193591  0.15083627    -1.11200
O755        O  0.11762558  0.78188817  0.21590857    -0.73700
O756        O  0.06349860  0.79050088  0.22472123    -0.77100
O757        O  0.03360974  0.82795498  0.10015760    -0.77800
C758        C  0.09141125  0.77974460  0.23497804     0.97400
O759        O  0.09321679  0.85396655  0.20803277    -0.75800
O760        O  0.12525501  0.74501394  0.15013799    -0.81000
C761        C  0.13114826  0.81483970  0.08065585     1.00100
C762        C  0.11494974  0.73210964  0.12107357     1.06000
O763        O  0.10012259  0.81690726  0.07843196    -0.76600
C764        C  0.12365567  0.85919934  0.20074153     1.04300
Fe765      Fe  0.19921967  0.60910529  0.03343222     1.65800
Fe766      Fe  0.16477824  0.59296481  0.11432839     1.73200
Fe767      Fe  0.16539968  0.53439748  0.04926791     1.54400
O768        O  0.15150879  0.55239969  0.99852070    -0.80400
O769        O  0.19215383  0.55602350  0.13410367    -0.78700
O770        O  0.16462009  0.60585271  0.99355212    -0.82900
O771        O  0.22727814  0.57318395  0.00720855    -0.77700
O772        O  0.11654773  0.53895122  0.06642413    -0.79500
O773        O  0.20644426  0.62225348  0.12024368    -0.82200
C774        C  0.23129194  0.54221893  0.00866223     0.98500
C775        C  0.15143612  0.57990295  0.98164274     1.06000
O776        O  0.17570891  0.57874214  0.06508937    -1.11200
O777        O  0.13794459  0.63187400  0.09573458    -0.73700
O778        O  0.17401710  0.65033033  0.05468468    -0.77100
O779        O  0.21289333  0.52410679  0.02856852    -0.77800
C780        C  0.14967381  0.65480095  0.07623865     0.97400
O781        O  0.23592951  0.61157631  0.07104938    -0.75800
O782        O  0.12136600  0.56501984  0.11894634    -0.81000
C783        C  0.18719424  0.52579484  0.12992766     1.00100
C784        C  0.10486995  0.54754498  0.09701969     1.06000
O785        O  0.17736344  0.51333766  0.10007730    -0.76600
C786        C  0.23382358  0.61983019  0.10392857     1.04300
Fe787      Fe  0.48138060  0.96042750  0.17926519     1.65800
Fe788      Fe  0.40250818  0.98131199  0.15810551     1.73200
Fe789      Fe  0.46552476  0.99652636  0.09837239     1.54400
O790        O  0.99734141  0.03032967  0.12998459    -0.80400
O791        O  0.38760263  0.96498203  0.10688214    -0.78700
O792        O  0.01462437  0.99262401  0.16962594    -0.82900
O793        O  0.49380334  0.92684909  0.14093705    -0.77700
O794        O  0.43544501  0.54095594  0.09403698    -0.79500
O795        O  0.39906029  0.93355586  0.17909768    -0.82200
C796        C  0.50529141  0.93314257  0.10961222     0.98500
C797        C  0.02496360  0.51624358  0.14487406     1.06000
O798        O  0.44950259  0.97979465  0.14551133    -1.11200
O799        O  0.41500979  0.50170511  0.20347762    -0.73700
O800        O  0.46890999  0.99287494  0.21901919    -0.77100
O801        O  0.50036049  0.95990684  0.09287182    -0.77800
C802        C  0.44118268  0.50434436  0.22239256     0.97400
O803        O  0.44872908  0.92621116  0.20301882    -0.75800
O804        O  0.39640495  0.53021285  0.13475554    -0.81000
C805        C  0.40275117  0.96152227  0.07677161     1.00100
C806        C  0.40988898  0.54906327  0.11159770     1.06000
O807        O  0.43304984  0.96775012  0.07232307    -0.76600
C808        C  0.41847662  0.91812981  0.20035439     1.04300
Fe809      Fe  0.44281135  0.59795722  0.42523785     1.65800
Fe810      Fe  0.41149378  0.52425075  0.40161864     1.73200
Fe811      Fe  0.40490719  0.58963874  0.34439436     1.54400
O812        O  0.37778289  0.62521624  0.36887752    -0.80400
O813        O  0.42496970  0.50969946  0.34936188    -0.78700
O814        O  0.41565264  0.64081646  0.40909507    -0.82900
O815        O  0.47771186  0.60759198  0.38654387    -0.77700
O816        O  0.36269899  0.56088835  0.33868720    -0.79500
O817        O  0.45955420  0.51455505  0.41878825    -0.82200
C818        C  0.47197735  0.62252328  0.35684408     0.98500
C819        C  0.39089692  0.64709761  0.38835894     1.06000
O820        O  0.41922778  0.57042865  0.39085326    -1.11200
O821        O  0.39742983  0.53546179  0.45425687    -0.73700
O822        O  0.40935770  0.58839298  0.46501625    -0.77100
O823        O  0.44431301  0.62169100  0.34098899    -0.77800
C824        C  0.39683324  0.56100092  0.47403494     0.97400
O825        O  0.47339868  0.56008348  0.44759697    -0.75800
O826        O  0.36223517  0.52757358  0.38668924    -0.81000
C827        C  0.43356767  0.52542163  0.32082737     1.00100
C828        C  0.34839738  0.53995162  0.35883712     1.06000
O829        O  0.43207578  0.55630378  0.31780789    -0.76600
C830        C  0.47778361  0.52957315  0.44126339     1.04300
Fe831      Fe  0.08438542  0.67635808  0.43675187     1.65800
Fe832      Fe  0.10803486  0.75403600  0.41498584     1.73200
Fe833      Fe  0.11881912  0.69121938  0.35513366     1.54400
O834        O  0.14920603  0.65682812  0.37767488    -0.80400
O835        O  0.09127832  0.76942882  0.36352601    -0.78700
O836        O  0.11440546  0.63695155  0.41900090    -0.82900
O837        O  0.04980079  0.66460331  0.39887042    -0.77700
O838        O  0.15834508  0.72257108  0.34956865    -0.79500
O839        O  0.06038783  0.75941072  0.43743145    -0.82200
C840        C  0.05563977  0.65224997  0.36805958     0.98500
C841        C  0.13837047  0.63330652  0.39682397     1.06000
O842        O  0.10402869  0.70754258  0.40262381    -1.11200
O843        O  0.12587867  0.74161381  0.46597480    -0.73700
O844        O  0.11750805  0.68777759  0.47649207    -0.77100
O845        O  0.08227271  0.65654081  0.35102452    -0.77800
C846        C  0.12875144  0.71566894  0.48531100     0.97400
O847        O  0.05095983  0.70962729  0.45992529    -0.75800
O848        O  0.15670197  0.75615552  0.39667964    -0.81000
C849        C  0.08560793  0.75445376  0.33376484     1.00100
C850        C  0.17104039  0.74475770  0.36878996     1.06000
O851        O  0.08901270  0.72381088  0.32983279    -0.76600
C852        C  0.04396551  0.74006267  0.45795296     1.04300
Fe853      Fe  0.29564604  0.82035091  0.27932353     1.65800
Fe854      Fe  0.31051448  0.78163922  0.35876672     1.73200
Fe855      Fe  0.37325866  0.79307456  0.29797948     1.54400
O856        O  0.35863221  0.77639080  0.24745446    -0.80400
O857        O  0.34493703  0.80815255  0.38430472    -0.78700
O858        O  0.30475362  0.78803399  0.23843696    -0.82900
O859        O  0.32973329  0.85254001  0.25532316    -0.77700
O860        O  0.37544605  0.74437994  0.31594989    -0.79500
O861        O  0.27783715  0.82016265  0.36548879    -0.82200
C862        C  0.36062155  0.85791364  0.25617633     0.98500
C863        C  0.33208214  0.77556552  0.22873469     1.06000
O864        O  0.32683462  0.79798744  0.31165838    -1.11200
O865        O  0.27418009  0.75439048  0.33581308    -0.73700
O866        O  0.25494133  0.79220296  0.29744836    -0.77100
O867        O  0.37973144  0.84032761  0.27570007    -0.77800
C868        C  0.25071230  0.76728814  0.31814337     0.97400
O869        O  0.28660477  0.85410545  0.31877921    -0.75800
O870        O  0.34024905  0.74018608  0.36184701    -0.81000
C871        C  0.37514894  0.81423716  0.37897481     1.00100
C872        C  0.36324557  0.72855611  0.34260916     1.06000
O873        O  0.38981600  0.80968582  0.34867944    -0.76600
C874        C  0.27479801  0.84777614  0.34993756     1.04300
Fe875      Fe  0.22235478  0.95993024  0.28575397     1.65800
Fe876      Fe  0.21345832  0.99670784  0.36720337     1.73200
Fe877      Fe  0.14818732  0.99058530  0.30991758     1.54400
O878        O  0.15383406  0.50485655  0.24987968    -0.80400
O879        O  0.17899256  0.97072833  0.39477846    -0.78700
O880        O  0.21265274  0.99323033  0.24590318    -0.82900
O881        O  0.18435443  0.92995720  0.26404570    -0.77700
O882        O  0.14919586  0.54187260  0.31739107    -0.79500
O883        O  0.24487036  0.95663610  0.37113099    -0.82200
C884        C  0.15390590  0.92514028  0.27127899     0.98500
C885        C  0.17892639  0.50534079  0.22896887     1.06000
O886        O  0.19456370  0.98285281  0.32064231    -1.11200
O887        O  0.24546768  0.52582764  0.33299629    -0.73700
O888        O  0.26524812  0.98670687  0.30107619    -0.77100
O889        O  0.13888691  0.94256195  0.29446702    -0.77800
C890        C  0.26735357  0.51319524  0.31295070     0.97400
O891        O  0.23208713  0.92498145  0.32408396    -0.75800
O892        O  0.18175179  0.53920224  0.36590676    -0.81000
C893        C  0.14793927  0.96988161  0.39132763     1.00100
C894        C  0.16144132  0.55455201  0.34582346     1.06000
O895        O  0.13292867  0.97838427  0.36235281    -0.76600
C896        C  0.24585645  0.92955728  0.35454769     1.04300
C897        C  0.25433003  0.87257679  0.36677642    -0.15100
C898        C  0.26590682  0.90300059  0.36914189    -0.30300
H899        H  0.22785453  0.86845482  0.36560472     0.13900
H900        H  0.29234344  0.90725405  0.37059362     0.14500
C901        C  0.20414983  0.75726173  0.35885978    -0.15100
C902        C  0.21707254  0.75493799  0.32510025    -0.30300
H903        H  0.21833877  0.76932646  0.37995641     0.13900
H904        H  0.20255838  0.74542231  0.30274587     0.14500
C905        C  0.15152907  0.60003316  0.38983512    -0.15100
C906        C  0.15184243  0.58850707  0.35544290    -0.30300
H907        H  0.15728048  0.58388953  0.41257900     0.13900
H908        H  0.14264331  0.60410380  0.33357473     0.14500
C909        C  0.49724934  0.64427986  0.34267105    -0.15100
C910        C  0.03134416  0.63033503  0.35312610    -0.30300
H911        H  0.49205938  0.67041700  0.34402054     0.13900
H912        H  0.03628251  0.60423390  0.35617852     0.14500
C913        C  0.37846058  0.68131073  0.38401484    -0.15100
C914        C  0.37561665  0.69478867  0.35032621    -0.30300
H915        H  0.37347205  0.69590191  0.40794010     0.13900
H916        H  0.38399764  0.68069346  0.32714226     0.14500
C917        C  0.30169154  0.52533689  0.31704929    -0.15100
C918        C  0.31395490  0.53016059  0.35081487    -0.30300
H919        H  0.31760311  0.52734399  0.29342663     0.13900
H920        H  0.29849307  0.52441023  0.37412551     0.14500
C921        C  0.40603483  0.89007812  0.22373058    -0.15100
C922        C  0.37378250  0.88555539  0.23269579    -0.30300
H923        H  0.42432100  0.87370715  0.23557657     0.13900
H924        H  0.35566693  0.90220808  0.22098568     0.14500
C925        C  0.43838938  0.52219794  0.25588738    -0.15100
C926        C  0.44351341  0.50769266  0.28826917    -0.30300
H927        H  0.42717388  0.54639203  0.25394075     0.13900
H928        H  0.45131762  0.48221607  0.29018626     0.14500
C929        C  0.18947761  0.50636464  0.16321619    -0.15100
C930        C  0.17478825  0.51904550  0.19279496    -0.30300
H931        H  0.20299583  0.48334881  0.16410708     0.13900
H932        H  0.16868855  0.04371652  0.20156553     0.14500
C933        C  0.07042166  0.53741258  0.10628240    -0.15100
C934        C  0.05943686  0.52881215  0.13997542    -0.30300
H935        H  0.05375878  0.53445065  0.08340539     0.13900
H936        H  0.07646959  0.52816025  0.16274697     0.14500
C937        C  0.13429410  0.89904117  0.25209446    -0.15100
C938        C  0.14319136  0.88522356  0.22015351    -0.30300
H939        H  0.11070976  0.89222094  0.26389361     0.13900
H940        H  0.16676658  0.89211213  0.20836279     0.14500
C941        C  0.09411513  0.76317188  0.27000577    -0.15100
C942        C  0.07837910  0.77288024  0.30032476    -0.30300
H943        H  0.11199863  0.74326352  0.27147012     0.13900
H944        H  0.06332270  0.79493369  0.30070925     0.14500
C945        C  0.02163381  0.91198167  0.10403121    -0.15100
C946        C  0.01151788  0.88103439  0.10214394    -0.30300
H947        H  0.04780154  0.91752389  0.10595925     0.13900
H948        H  0.98538972  0.87551206  0.09959141     0.14500
C949        C  0.13574637  0.68815621  0.08058499    -0.15100
C950        C  0.12515362  0.69810686  0.11343544    -0.30300
H951        H  0.13719411  0.70553515  0.05812217     0.13900
H952        H  0.12724666  0.68152510  0.13659412     0.14500
C953        C  0.32955746  0.77615305  0.16240037    -0.15100
C954        C  0.33409250  0.75957861  0.19385281    -0.30300
H955        H  0.31804676  0.80022403  0.16176495     0.13900
H956        H  0.34635703  0.73585034  0.19406194     0.14500
C957        C  0.27254980  0.65870390  0.12790562    -0.15100
C958        C  0.26465730  0.62739471  0.12234542    -0.30300
H959        H  0.25326806  0.67678056  0.13230335     0.13900
H960        H  0.28467910  0.61040236  0.11651507     0.14500
C961        C  0.46408585  0.74418956  0.10346769    -0.15100
C962        C  0.47275915  0.76317238  0.13200868    -0.30300
H963        H  0.48310427  0.73321920  0.08671737     0.13900
H964        H  0.45352962  0.77382613  0.14875377     0.14500
C965        C  0.39525623  0.58204277  0.10632008    -0.15100
C966        C  0.39572257  0.59916714  0.07469530    -0.30300
H967        H  0.38208560  0.59207345  0.12942363     0.13900
H968        H  0.40641342  0.58845657  0.05048601     0.14500
C969        C  0.37878535  0.71725625  0.91634310    -0.15100
C970        C  0.39536841  0.72237017  0.94759863    -0.30300
H971        H  0.35253724  0.71188536  0.91628926     0.13900
H972        H  0.42067145  0.73122202  0.94703339     0.14500
C973        C  0.15334941  0.58406646  0.91554053    -0.15100
C974        C  0.13564208  0.58070784  0.94633409    -0.30300
H975        H  0.17825249  0.59385081  0.91578173     0.13900
H976        H  0.11105075  0.57013861  0.94543047     0.14500
C977        C  0.03249152  0.63238074  0.88281941    -0.15100
C978        C  0.00094626  0.63979096  0.87669413    -0.30300
H979        H  0.05015577  0.65184277  0.88789019     0.13900
H980        H  0.47543576  0.62357113  0.85232383     0.14500
C981        C  0.26621388  0.78456517  0.97335482    -0.15100
C982        C  0.26706796  0.75535242  0.99136525    -0.30300
H983        H  0.28730807  0.80082097  0.97557674     0.13900
H984        H  0.24587140  0.73921828  0.98916196     0.14500
C985        C  0.13437635  0.81731077  0.01505057    -0.15100
C986        C  0.14963519  0.82196870  0.04715471    -0.30300
H987        H  0.10914933  0.80830542  0.01430573     0.13900
H988        H  0.17581354  0.82756031  0.04835461     0.14500
C989        C  0.07015467  0.79117062  0.86144364    -0.15100
C990        C  0.06362308  0.76462061  0.84108357    -0.30300
H991        H  0.05027052  0.80731908  0.86978943     0.13900
H992        H  0.08402329  0.74994985  0.83101785     0.14500
C993        C  0.13435209  0.93768050  0.88406181    -0.15100
C994        C  0.13200291  0.95283497  0.85118646    -0.30300
H995        H  0.12513102  0.94977380  0.90819927     0.13900
H996        H  0.14371083  0.94163007  0.82781483     0.14500
C997        C  0.26216205  0.49636360  0.97583934    -0.15100
C998        C  0.25870063  0.52824211  0.98565787    -0.30300
H999        H  0.26481653  0.04341188  0.95683151     0.13900
H1000       H  0.27623825  0.54584036  0.97471579     0.14500
C1001       C  0.39444186  0.96825579  0.01275631    -0.15100
C1002       C  0.38462433  0.95332589  0.04364314    -0.30300
H1003       H  0.41467687  0.98576699  0.01320568     0.13900
H1004       H  0.36223356  0.93873752  0.04472879     0.14500
C1005       C  0.26771854  0.90879132  0.83990979    -0.15100
C1006       C  0.26012634  0.87732615  0.83524754    -0.30300
H1007       H  0.24748302  0.92587950  0.84440921     0.13900
H1008       H  0.27959885  0.85921922  0.83214192     0.14500
C1009       C  0.45836152  0.00315802  0.85777749    -0.15100
C1010       C  0.46852397  0.50479244  0.82729646    -0.30300
H1011       H  0.47217269  0.01093986  0.88149276     0.13900
H1012       H  0.45598910  0.49617975  0.80310607     0.14500
C1013       C  0.39388739  0.84886640  0.88731864    -0.15100
C1014       C  0.40922790  0.83975819  0.85622231    -0.30300
H1015       H  0.38796938  0.83048112  0.90779251     0.13900
H1016       H  0.41187173  0.85769093  0.83443480     0.14500
C1017       C  0.38256579  0.65645192  0.74009271    -0.15100
C1018       C  0.39267270  0.64032367  0.70991171    -0.30300
H1019       H  0.35828080  0.65092780  0.75095866     0.13900
H1020       H  0.41702450  0.64570180  0.69914716     0.14500
C1021       C  0.39435995  0.57051474  0.53943963    -0.15100
C1022       C  0.38078489  0.55835508  0.50909198    -0.30300
H1023       H  0.41855507  0.58193880  0.53910810     0.13900
H1024       H  0.35844545  0.54364947  0.51053065     0.14500
C1025       C  0.33084102  0.52930692  0.79713106    -0.15100
C1026       C  0.34970219  0.52283568  0.76774064    -0.30300
H1027       H  0.32274884  0.05074111  0.79415764     0.13900
H1028       H  0.37086136  0.50651770  0.77039568     0.14500
C1029       C  0.15921475  0.64441847  0.72695598    -0.15100
C1030       C  0.12845005  0.64270080  0.74137757    -0.30300
H1031       H  0.17694118  0.62536895  0.73389890     0.13900
H1032       H  0.11098744  0.66223203  0.73534577     0.14500
C1033       C  0.13487742  0.70897894  0.55155657    -0.15100
C1034       C  0.14690401  0.71860667  0.51905187    -0.30300
H1035       H  0.11050942  0.69814304  0.55399895     0.13900
H1036       H  0.16960645  0.73270467  0.51737698     0.14500
C1037       C  0.19576868  0.77210966  0.76954777    -0.15100
C1038       C  0.20197566  0.75760744  0.80192927    -0.30300
H1039       H  0.18259750  0.79532278  0.76828001     0.13900
H1040       H  0.21445545  0.73407138  0.80373974     0.14500
C1041       C  0.26149514  0.62960039  0.59365585    -0.15100
C1042       C  0.27417572  0.65965523  0.59375452    -0.30300
H1043       H  0.23488883  0.62625135  0.59346272     0.13900
H1044       H  0.30079903  0.66288026  0.59345196     0.14500
C1045       C  0.01085372  0.78380554  0.49186330    -0.15100
C1046       C  0.01565669  0.75221536  0.48121391    -0.30300
H1047       H  0.52959969  0.80355930  0.47033903     0.13900
H1048       H  0.99896124  0.73365815  0.49179345     0.14500
C1049       C  0.39348133  0.82462600  0.41125009    -0.15100
C1050       C  0.38200565  0.81459701  0.44382153    -0.30300
H1051       H  0.41688696  0.83738329  0.40871377     0.13900
H1052       H  0.36050515  0.79874382  0.44565662     0.14500
C1053       C  0.45040028  0.76818678  0.66436971    -0.15100
C1054       C  0.43692863  0.77923009  0.69548778    -0.30300
H1055       H  0.46419856  0.74533443  0.66373332     0.13900
H1056       H  0.42015227  0.80007425  0.69500437     0.14500
C1057       C  0.32365901  0.77844191  0.60224900    -0.15100
C1058       C  0.31070142  0.78062841  0.63596094    -0.30300
H1059       H  0.31022051  0.76532260  0.58134075     0.13900
H1060       H  0.32482964  0.79098684  0.65815109     0.14500
C1061       C  0.37395315  0.93862871  0.56842850    -0.15100
C1062       C  0.37253995  0.95102218  0.60248100    -0.30300
H1063       H  0.36725619  0.95374283  0.54514695     0.13900
H1064       H  0.38267330  0.93664069  0.62484958     0.14500
C1065       C  0.00718379  0.50928373  0.46904600    -0.15100
C1066       C  0.02328442  0.51958327  0.49930163    -0.30300
H1067       H  0.51097490  0.48632713  0.44860954     0.13900
H1068       H  0.01768919  0.54389750  0.50946078     0.14500
C1069       C  0.08941459  0.52546865  0.67202260    -0.15100
C1070       C  0.09914020  0.51187923  0.70364337    -0.30300
H1071       H  0.05723706  0.04622621  0.66939878     0.13900
H1072       H  0.11182422  0.48835057  0.70409615     0.14500
C1073       C  0.12885709  0.96068700  0.42356409    -0.15100
C1074       C  0.14121173  0.96800446  0.45630942    -0.30300
H1075       H  0.10385087  0.95149912  0.42074446     0.13900
H1076       H  0.16469445  0.98066404  0.45860802     0.14500
C1077       C  0.49648855  0.90199721  0.61312690    -0.15100
C1078       C  0.02500133  0.88078334  0.62822124    -0.30300
H1079       H  0.49591028  0.92858581  0.61044418     0.13900
H1080       H  0.02805463  0.85450099  0.62458441     0.14500
C1081       C  0.19902331  0.00607146  0.60711006    -0.15100
C1082       C  0.22468585  0.50949820  0.64229492    -0.30300
H1083       H  0.21071340  0.01881869  0.58448983     0.13900
H1084       H  0.20821126  0.50781490  0.66547837     0.12900
C1085       C  0.14790751  0.84756355  0.58071462    -0.15100
C1086       C  0.15245225  0.83492888  0.61442857    -0.30300
H1087       H  0.15268683  0.83280346  0.55686119     0.13900
H1088       H  0.14417843  0.84887103  0.63777792     0.14500
Fe1089     Fe  0.58323710  0.43127983  0.52667965     1.65800
Fe1090     Fe  0.62139296  0.44057798  0.60726291     1.73200
Fe1091     Fe  0.60662925  0.00049224  0.54926226     1.54400
O1092       O  0.62335477  0.49522969  0.49692756    -0.80400
O1093       O  0.59429762  0.47309278  0.63532193    -0.78700
O1094       O  0.61670603  0.44124482  0.48705260    -0.82900
O1095       O  0.55219408  0.46879025  0.50367577    -0.77700
O1096       O  0.66068323  0.50397050  0.56271096    -0.79500
O1097       O  0.58234738  0.40833241  0.61152189    -0.82200
C1098       C  0.54570953  0.49862177  0.51170124     0.98500
C1099       C  0.62635030  0.46962204  0.47738867     1.06000
O1100       O  0.60586802  0.45935241  0.56113382    -1.11200
O1101       O  0.64883769  0.40534020  0.58249792    -0.73700
O1102       O  0.61059030  0.38857057  0.54351980    -0.77100
O1103       O  0.55846894  0.00495664  0.52855205    -0.77800
C1104       C  0.63557966  0.38281471  0.56412120     0.97400
O1105       O  0.54897053  0.42208641  0.56559217    -0.75800
O1106       O  0.66268846  0.47062394  0.61084027    -0.81000
C1107       C  0.58485392  0.00180961  0.63049550     1.00100
C1108       C  0.67550937  0.49211866  0.59014082     1.06000
O1109       O  0.59179041  0.01674540  0.60083592    -0.76600
C1110       C  0.55437908  0.40868821  0.59627890     1.04300
Fe1111     Fe  0.94403419  0.36391178  0.53413002     1.65800
Fe1112     Fe  0.91008101  0.34668190  0.61651052     1.73200
Fe1113     Fe  0.92191619  0.28521658  0.55456700     1.54400
O1114       O  0.90237648  0.29820626  0.50469225    -0.80400
O1115       O  0.93700495  0.31127522  0.64140631    -0.78700
O1116       O  0.91088024  0.35200858  0.49444285    -0.82900
O1117       O  0.97838804  0.33179062  0.51043160    -0.77700
O1118       O  0.87392712  0.28144553  0.57395439    -0.79500
O1119       O  0.94907699  0.37835055  0.62309021    -0.82200
C1120       C  0.98540458  0.30134094  0.51138571     0.98500
C1121       C  0.89915797  0.32428071  0.48576835     1.06000
O1122       O  0.92517721  0.33175441  0.56824724    -1.11200
O1123       O  0.88180453  0.38431094  0.59663242    -0.73700
O1124       O  0.91343550  0.40272506  0.55159975    -0.77100
O1125       O  0.96892872  0.28139302  0.53100020    -0.77800
C1126       C  0.89079231  0.40696977  0.57517857     0.97400
O1127       O  0.97845687  0.37677813  0.57174496    -0.75800
O1128       O  0.86843626  0.31755621  0.61848111    -0.81000
C1129       C  0.94460619  0.28173240  0.63515750     1.00100
C1130       C  0.85752394  0.29413661  0.59964595     1.06000
O1131       O  0.94077322  0.26832078  0.60426494    -0.76600
C1132       C  0.97444183  0.38512341  0.60457116     1.04300
Fe1133     Fe  0.73077771  0.21193727  0.67899796     1.65800
Fe1134     Fe  0.65261496  0.23535614  0.65506714     1.73200
Fe1135     Fe  0.71805552  0.25009481  0.59790743     1.54400
O1136       O  0.75445844  0.27671074  0.62165912    -0.80400
O1137       O  0.63919778  0.21706288  0.60420622    -0.78700
O1138       O  0.77084956  0.24259143  0.66545341    -0.82900
O1139       O  0.74507038  0.17946057  0.64070885    -0.77700
O1140       O  0.68892066  0.29204702  0.59565823    -0.79500
O1141       O  0.64779329  0.18806861  0.67847188    -0.82200
C1142       C  0.75413055  0.18402336  0.60816916     0.98500
C1143       C  0.77623475  0.26617790  0.64333908     1.06000
O1144       O  0.70022221  0.23278977  0.64425856    -1.11200
O1145       O  0.66313395  0.25362595  0.70590957    -0.73700
O1146       O  0.71630865  0.24251934  0.71950737    -0.77100
O1147       O  0.74968059  0.21062360  0.59082046    -0.77800
C1148       C  0.68813117  0.25442901  0.72691797     0.97400
O1149       O  0.69801100  0.17675097  0.69885684    -0.75800
O1150       O  0.64839586  0.28370622  0.63526955    -0.81000
C1151       C  0.65457657  0.21590365  0.57401221     1.00100
C1152       C  0.66286591  0.30143027  0.61148511     1.06000
O1153       O  0.68402685  0.22526895  0.56988429    -0.76600
C1154       C  0.66746573  0.17024807  0.69714050     1.04300
Fe1155     Fe  0.78949843  0.07309173  0.68388217     1.65800
Fe1156     Fe  0.86713739  0.04611420  0.66590038     1.73200
Fe1157     Fe  0.80471266  0.03420926  0.60554733     1.54400
O1158       O  0.76900288  0.00694222  0.62956749    -0.80400
O1159       O  0.88401929  0.06062469  0.61413750    -0.78700
O1160       O  0.74894407  0.04512959  0.66613410    -0.82900
O1161       O  0.78130262  0.10687104  0.64357627    -0.77700
O1162       O  0.83462897  0.99280737  0.60398383    -0.79500
O1163       O  0.87295160  0.09423640  0.68493494    -0.82200
C1164       C  0.77123002  0.10117340  0.61159772     0.98500
C1165       C  0.74529460  0.01976326  0.64653575     1.06000
O1166       O  0.82082798  0.05080505  0.65212559    -1.11200
O1167       O  0.85269293  0.03082662  0.71731911    -0.73700
O1168       O  0.79834446  0.04044791  0.72524449    -0.77100
O1169       O  0.77235637  0.07301583  0.59741135    -0.77800
C1170       C  0.82591410  0.02864402  0.73545042     0.97400
O1171       O  0.82341348  0.10511438  0.70732967    -0.75800
O1172       O  0.86879926  0.99685058  0.65084537    -0.81000
C1173       C  0.86925018  0.06519637  0.58378898     1.00100
C1174       C  0.85937244  0.48602159  0.62091142     1.06000
O1175       O  0.83872801  0.06066516  0.57920518    -0.76600
C1176       C  0.85399624  0.11138621  0.70483537     1.04300
Fe1177     Fe  0.83972925  0.42603844  0.92431445     1.65800
Fe1178     Fe  0.86095523  0.50545557  0.90670438     1.73200
Fe1179     Fe  0.87307360  0.44809193  0.84267113     1.54400
O1180       O  0.88751245  0.40098789  0.85481133    -0.80400
O1181       O  0.83386154  0.01605931  0.86559355    -0.78700
O1182       O  0.87639807  0.39132102  0.91280593    -0.82900
O1183       O  0.81055773  0.40866082  0.88289272    -0.77700
O1184       O  0.92024280  0.46535142  0.85215715    -0.79500
O1185       O  0.81816029  0.00302851  0.94203291    -0.82200
C1186       C  0.80642340  0.41484799  0.84916480     0.98500
C1187       C  0.88867420  0.38265757  0.88258951     1.06000
O1188       O  0.85815138  0.45960851  0.89181388    -1.11200
O1189       O  0.88654436  0.49181433  0.95243445    -0.73700
O1190       O  0.86703802  0.44199622  0.96793221    -0.77100
O1191       O  0.82630412  0.43176139  0.83007112    -0.77800
C1192       C  0.88408173  0.46751528  0.97411381     0.97400
O1193       O  0.80000526  0.45473714  0.94183205    -0.75800
O1194       O  0.90640346  0.51177411  0.88035946    -0.81000
C1195       C  0.84091831  0.00852584  0.83317239     1.00100
C1196       C  0.92731444  0.49380134  0.86386186     1.06000
O1197       O  0.86141098  0.49234852  0.82093283    -0.76600
C1198       C  0.79651319  0.48516186  0.94820163     1.04300
Fe1199     Fe  0.70069721  0.35240007  0.92781100     1.65800
Fe1200     Fe  0.66606107  0.27988682  0.90676506     1.73200
Fe1201     Fe  0.66583415  0.34224116  0.84593853     1.54400
O1202       O  0.64067487  0.38092383  0.86719544    -0.80400
O1203       O  0.67724016  0.26155409  0.85512795    -0.78700
O1204       O  0.67898751  0.39644129  0.90660582    -0.82900
O1205       O  0.73803075  0.35455227  0.89123658    -0.77700
O1206       O  0.62124076  0.31608870  0.84115395    -0.79500
O1207       O  0.71377349  0.26902108  0.92327883    -0.82200
C1208       C  0.73670113  0.36438157  0.85864378     0.98500
C1209       C  0.65478439  0.40310946  0.88529666     1.06000
O1210       O  0.67659261  0.32482582  0.89395828    -1.11200
O1211       O  0.65336496  0.29458627  0.95899020    -0.73700
O1212       O  0.66461822  0.34822319  0.96612435    -0.77100
O1213       O  0.70958924  0.36928701  0.84201818    -0.77800
C1214       C  0.65207967  0.32130126  0.97688661     0.97400
O1215       O  0.72642767  0.31378909  0.95410802    -0.75800
O1216       O  0.61725076  0.28583085  0.89160031    -0.81000
C1217       C  0.68748680  0.27526131  0.82602747     1.00100
C1218       C  0.60516078  0.29692105  0.86211749     1.06000
O1219       O  0.69092152  0.30581845  0.82251623    -0.76600
C1220       C  0.73107896  0.28359266  0.94690365     1.04300
Fe1221     Fe  0.55161765  0.06936064  0.77976673     1.65800
Fe1222     Fe  0.57068689  0.03426611  0.86040112     1.73200
Fe1223     Fe  0.62987610  0.04329155  0.79835796     1.54400
O1224       O  0.61539274  0.01859433  0.75215771    -0.80400
O1225       O  0.61666728  0.03903479  0.88134636    -0.78700
O1226       O  0.56746218  0.04276689  0.73594812    -0.82900
O1227       O  0.58283532  0.10762592  0.76384069    -0.77700
O1228       O  0.62950463  0.49925765  0.83275253    -0.79500
O1229       O  0.55984134  0.08221125  0.87361813    -0.82200
C1230       C  0.61341657  0.10907499  0.75614839     0.98500
C1231       C  0.59182929  0.02393026  0.72977656     1.06000
O1232       O  0.58376442  0.04875454  0.81190687    -1.11200
O1233       O  0.52209114  0.02570987  0.84887650    -0.73700
O1234       O  0.51517214  0.03381188  0.78998639    -0.77100
O1235       O  0.63348673  0.08675020  0.76663616    -0.77800
C1236       C  0.50483829  0.02325517  0.82051155     0.97400
O1237       O  0.53484440  0.09813557  0.82182626    -0.75800
O1238       O  0.58243956  0.98651288  0.84807639    -0.81000
C1239       C  0.63680544  0.06196422  0.87605120     1.00100
C1240       C  0.60874755  0.47981080  0.84795226     1.06000
O1241       O  0.64519128  0.06996103  0.84395310    -0.76600
C1242       C  0.54303972  0.10262897  0.85492814     1.04300
Fe1243     Fe  0.97861473  0.20417420  0.78375594     1.65800
Fe1244     Fe  0.96416217  0.24450080  0.86070080     1.73200
Fe1245     Fe  0.90234119  0.23551434  0.79870240     1.54400
O1246       O  0.92063239  0.25145867  0.74862064    -0.80400
O1247       O  0.92647548  0.22344328  0.88590739    -0.78700
O1248       O  0.97506257  0.23938521  0.74391452    -0.82900
O1249       O  0.94364561  0.17667600  0.75578085    -0.77700
O1250       O  0.90213228  0.28414349  0.81532444    -0.79500
O1251       O  0.98992529  0.20108377  0.87068494    -0.82200
C1252       C  0.91291381  0.17128623  0.75757336     0.98500
C1253       C  0.94868862  0.25325329  0.73261495     1.06000
O1254       O  0.94792427  0.22865026  0.81406978    -1.11200
O1255       O  0.00386887  0.26740680  0.83847036    -0.73700
O1256       O  0.52335265  0.23565224  0.79435623    -0.77100
O1257       O  0.89446316  0.18821561  0.77814851    -0.77800
C1258       C  0.52809317  0.25912719  0.81657300     0.97400
O1259       O  0.97930341  0.16892744  0.82324357    -0.75800
O1260       O  0.93938868  0.28904162  0.85930333    -0.81000
C1261       C  0.89637412  0.21766730  0.88052425     1.00100
C1262       C  0.91616180  0.30063327  0.84004258     1.06000
O1263       O  0.88260983  0.22058169  0.84935269    -0.76600
C1264       C  0.98682240  0.17295987  0.85634147     1.04300
Fe1265     Fe  0.82977473  0.18542313  0.03245862     1.65800
Fe1266     Fe  0.86686939  0.19537851  0.11305417     1.73200
Fe1267     Fe  0.86681165  0.25721888  0.05195563     1.54400
O1268       O  0.87714007  0.24246234  0.99930316    -0.80400
O1269       O  0.84132159  0.23186686  0.13562191    -0.78700
O1270       O  0.86354951  0.18944726  0.99201393    -0.82900
O1271       O  0.80317450  0.22438948  0.00825152    -0.77700
O1272       O  0.91597626  0.24948585  0.06546038    -0.79500
O1273       O  0.82424250  0.16764513  0.11814185    -0.82200
C1274       C  0.80001122  0.25491785  0.01473601     0.98500
C1275       C  0.87623206  0.21607994  0.98086720     1.06000
O1276       O  0.85550708  0.21255401  0.06510937    -1.11200
O1277       O  0.89159165  0.15663124  0.09186781    -0.73700
O1278       O  0.85339126  0.14159161  0.05164315    -0.77100
O1279       O  0.81892779  0.26949091  0.03688808    -0.77800
C1280       C  0.87790888  0.13493570  0.07260138     0.97400
O1281       O  0.79380623  0.18296548  0.07083196    -0.75800
O1282       O  0.91132849  0.22151625  0.11730950    -0.81000
C1283       C  0.84621156  0.26225782  0.13270326     1.00100
C1284       C  0.92801571  0.23904885  0.09529902     1.06000
O1285       O  0.85756747  0.27575101  0.10399307    -0.76600
C1286       C  0.79657245  0.17188679  0.10277215     1.04300
Fe1287     Fe  0.54501640  0.32427025  0.17299546     1.65800
Fe1288     Fe  0.62306472  0.29710599  0.15773226     1.73200
Fe1289     Fe  0.56224078  0.28639084  0.09462489     1.54400
O1290       O  0.52520967  0.25863723  0.11631251    -0.80400
O1291       O  0.64149429  0.31278513  0.10681904    -0.78700
O1292       O  0.50479460  0.29669904  0.15274411    -0.82900
O1293       O  0.53804304  0.35853376  0.13298268    -0.77700
O1294       O  0.59250188  0.24517894  0.09292988    -0.79500
O1295       O  0.62888815  0.34459147  0.17901384    -0.82200
C1296       C  0.52757053  0.35285741  0.10115841     0.98500
C1297       C  0.50101815  0.27173828  0.13237476     1.06000
O1298       O  0.57713628  0.30216417  0.14220299    -1.11200
O1299       O  0.60687970  0.28075000  0.20827152    -0.73700
O1300       O  0.55245217  0.29120137  0.21428585    -0.77100
O1301       O  0.52979386  0.32504974  0.08635459    -0.77800
C1302       C  0.57953822  0.27897579  0.22547687     0.97400
O1303       O  0.57846436  0.35585401  0.19856643    -0.75800
O1304       O  0.62515517  0.24829518  0.14119840    -0.81000
C1305       C  0.62759943  0.31804831  0.07604047     1.00100
C1306       C  0.61437481  0.23306966  0.11365046     1.06000
O1307       O  0.59717946  0.31356732  0.07038970    -0.76600
C1308       C  0.60929662  0.36159928  0.19833781     1.04300
Fe1309     Fe  0.69778803  0.10677324  0.02736435     1.65800
Fe1310     Fe  0.66135032  0.09222709  0.10819409     1.73200
Fe1311     Fe  0.66691428  0.03096488  0.04554378     1.54400
O1312       O  0.65198735  0.04705203  0.99431519    -0.80400
O1313       O  0.68631379  0.05556044  0.13192464    -0.78700
O1314       O  0.66407440  0.10056330  0.98645949    -0.82900
O1315       O  0.72804913  0.07140282  0.00317995    -0.77700
O1316       O  0.61771771  0.03277408  0.06262430    -0.79500
O1317       O  0.70332427  0.12021058  0.11523259    -0.82200
C1318       C  0.73327758  0.04069287  0.00563048     0.98500
C1319       C  0.65145318  0.07374991  0.97586044     1.06000
O1320       O  0.67458662  0.07651176  0.05988529    -1.11200
O1321       O  0.63585256  0.13157343  0.08829080    -0.73700
O1322       O  0.67158710  0.14864594  0.04644547    -0.77100
O1323       O  0.71483677  0.02231907  0.02510336    -0.77800
C1324       C  0.64782059  0.15408245  0.06852680     0.97400
O1325       O  0.73354280  0.11143592  0.06585928    -0.75800
O1326       O  0.61763130  0.06555567  0.11068873    -0.81000
C1327       C  0.68751342  0.02503714  0.12693040     1.00100
C1328       C  0.60361814  0.04470621  0.09048943     1.06000
O1329       O  0.68085885  0.01158262  0.09656778    -0.76600
C1330       C  0.73078336  0.11886498  0.09896658     1.04300
Fe1331     Fe  0.97583889  0.46392745  0.18136275     1.65800
Fe1332     Fe  0.90138793  0.49286914  0.15487581     1.73200
Fe1333     Fe  0.96791813  0.50148695  0.09984039     1.54400
O1334       O  0.50289737  0.52584067  0.11370272    -0.80400
O1335       O  0.88813187  0.48028267  0.10181570    -0.78700
O1336       O  0.52108396  0.49193697  0.15677872    -0.82900
O1337       O  0.98666007  0.42928735  0.14338772    -0.77700
O1338       O  0.93220595  0.04287117  0.09849906    -0.79500
O1339       O  0.89289783  0.44454817  0.17099299    -0.82200
C1340       C  0.00143851  0.43480428  0.11361055     0.98500
C1341       C  0.52432328  0.01528074  0.13955643     1.06000
O1342       O  0.94819059  0.48659555  0.14574618    -1.11200
O1343       O  0.90652210  0.00406282  0.21263022    -0.73700
O1344       O  0.96462996  0.49701172  0.22064616    -0.77100
O1345       O  0.00082305  0.46241941  0.09756205    -0.77800
C1346       C  0.93177002  0.00646152  0.23329109     0.97400
O1347       O  0.93780266  0.43299178  0.20310740    -0.75800
O1348       O  0.89719170  0.03993383  0.14487603    -0.81000
C1349       C  0.90450993  0.47246003  0.07359952     1.00100
C1350       C  0.90954923  0.05515412  0.11793168     1.06000
O1351       O  0.93558696  0.47421808  0.07165012    -0.76600
C1352       C  0.90754866  0.42751688  0.19517107     1.04300
Fe1353     Fe  0.93628685  0.10572568  0.43620765     1.65800
Fe1354     Fe  0.91151886  0.02890517  0.41368468     1.73200
Fe1355     Fe  0.90377586  0.09239178  0.35326494     1.54400
O1356       O  0.87373831  0.12734697  0.37464300    -0.80400
O1357       O  0.92764710  0.01350197  0.36223240    -0.78700
O1358       O  0.90722406  0.14560579  0.41800025    -0.82900
O1359       O  0.97205747  0.11751534  0.39976931    -0.77700
O1360       O  0.86339946  0.06152261  0.34658550    -0.79500
O1361       O  0.95907517  0.02247952  0.43619308    -0.82200
C1362       C  0.96797206  0.12958171  0.36832022     0.98500
C1363       C  0.88398762  0.15001899  0.39503097     1.06000
O1364       O  0.91687859  0.07540309  0.40137909    -1.11200
O1365       O  0.89435825  0.04067560  0.46489707    -0.73700
O1366       O  0.90247244  0.09436276  0.47517140    -0.77100
O1367       O  0.94174657  0.12615655  0.35016001    -0.77800
C1368       C  0.89180970  0.06626586  0.48436119     0.97400
O1369       O  0.96850691  0.07159516  0.45979775    -0.75800
O1370       O  0.86279195  0.02872980  0.39507921    -0.81000
C1371       C  0.93473214  0.02866000  0.33271865     1.00100
C1372       C  0.84953505  0.03988831  0.36615407     1.06000
O1373       O  0.93340743  0.05948973  0.32907881    -0.76600
C1374       C  0.97528777  0.04122752  0.45734686     1.04300
Fe1375     Fe  0.58568486  0.17773033  0.42703153     1.65800
Fe1376     Fe  0.61072589  0.25498800  0.40523254     1.73200
Fe1377     Fe  0.62054499  0.19207517  0.34523860     1.54400
O1378       O  0.64901819  0.15574850  0.36722850    -0.80400
O1379       O  0.59307016  0.27113044  0.35442061    -0.78700
O1380       O  0.61400270  0.13741343  0.40913917    -0.82900
O1381       O  0.55019099  0.16753641  0.38970951    -0.77700
O1382       O  0.66223482  0.22176123  0.34065710    -0.79500
O1383       O  0.56342704  0.26095688  0.42793761    -0.82200
C1384       C  0.55463192  0.15640384  0.35805092     0.98500
C1385       C  0.63781164  0.13288504  0.38706812     1.06000
O1386       O  0.60601894  0.20855813  0.39277815    -1.11200
O1387       O  0.62889827  0.24166427  0.45585490    -0.73700
O1388       O  0.61970769  0.18786742  0.46605268    -0.77100
O1389       O  0.58137821  0.15969440  0.34066129    -0.77800
C1390       C  0.63150529  0.21549908  0.47492343     0.97400
O1391       O  0.55365765  0.21157058  0.45110265    -0.75800
O1392       O  0.65922323  0.25672211  0.38650933    -0.81000
C1393       C  0.58726460  0.25639103  0.32457236     1.00100
C1394       C  0.67450291  0.24446679  0.35969928     1.06000
O1395       O  0.59276242  0.22617677  0.31991755    -0.76600
C1396       C  0.54700968  0.24200384  0.44881511     1.04300
Fe1397     Fe  0.80610923  0.32590440  0.28014212     1.65800
Fe1398     Fe  0.81309357  0.28679344  0.36089146     1.73200
Fe1399     Fe  0.87981912  0.29438505  0.30577203     1.54400
O1400       O  0.86939222  0.28137744  0.25283388    -0.80400
O1401       O  0.84654679  0.31244455  0.38965705    -0.78700
O1402       O  0.81631458  0.29334088  0.24022020    -0.82900
O1403       O  0.84459294  0.35623504  0.25873648    -0.77700
O1404       O  0.87617962  0.24512537  0.32007490    -0.79500
O1405       O  0.78163610  0.32617320  0.36434710    -0.82200
C1406       C  0.87520749  0.36039416  0.26577728     0.98500
C1407       C  0.84421274  0.28126294  0.23209849     1.06000
O1408       O  0.83322357  0.30189472  0.31518782    -1.11200
O1409       O  0.77762880  0.26074541  0.33476401    -0.73700
O1410       O  0.76249410  0.29914719  0.29479122    -0.77100
O1411       O  0.88985599  0.34232532  0.28902465    -0.77800
C1412       C  0.75586053  0.27419487  0.31499531     0.97400
O1413       O  0.79647233  0.35978416  0.31922669    -0.75800
O1414       O  0.84097470  0.24462200  0.36623888    -0.81000
C1415       C  0.87757447  0.31487931  0.38701741     1.00100
C1416       C  0.86246307  0.23075594  0.34677773     1.06000
O1417       O  0.89362695  0.30721313  0.35852052    -0.76600
C1418       C  0.78230757  0.35410150  0.34938298     1.04300
Fe1419     Fe  0.72974980  0.46147771  0.27647726     1.65800
Fe1420     Fe  0.71446123  0.49781322  0.35653867     1.73200
Fe1421     Fe  0.65141499  0.48485265  0.29673398     1.54400
O1422       O  0.66031977  0.00101321  0.24656154    -0.80400
O1423       O  0.68193488  0.46896035  0.38290412    -0.78700
O1424       O  0.71786499  0.49306202  0.23526943    -0.82900
O1425       O  0.69643844  0.42784293  0.25397561    -0.77700
O1426       O  0.65229979  0.03915891  0.31208336    -0.79500
O1427       O  0.74934751  0.46153109  0.36257383    -0.82200
C1428       C  0.66596309  0.42061920  0.25638340     0.98500
C1429       C  0.68604078  0.00215053  0.22664002     1.06000
O1430       O  0.69822288  0.48169137  0.30954364    -1.11200
O1431       O  0.74855261  0.02462251  0.33229017    -0.73700
O1432       O  0.76938767  0.49162288  0.29377537    -0.77100
O1433       O  0.64664492  0.43667964  0.27707281    -0.77800
C1434       C  0.77157347  0.01122389  0.31456696     0.97400
O1435       O  0.74161511  0.42816123  0.31571753    -0.75800
O1436       O  0.68357326  0.03853907  0.36165095    -0.81000
C1437       C  0.65119575  0.46515060  0.37880458     1.00100
C1438       C  0.66360957  0.05292065  0.34028763     1.06000
O1439       O  0.63605986  0.47011210  0.34879895    -0.76600
C1440       C  0.75371975  0.43464536  0.34657742     1.04300
C1441       C  0.76366096  0.38026930  0.36591522    -0.15100
C1442       C  0.77521347  0.41056143  0.36296840    -0.30300
H1443       H  0.73741437  0.37603659  0.36985822     0.13900
H1444       H  0.80152233  0.41466002  0.35940387     0.14500
C1445       C  0.70857373  0.25625406  0.35206412    -0.15100
C1446       C  0.72137749  0.26181382  0.31852375    -0.30300
H1447       H  0.72346616  0.26233212  0.37563264     0.13900
H1448       H  0.70604225  0.25935910  0.29451207     0.14500
C1449       C  0.65103664  0.09938974  0.38186869    -0.15100
C1450       C  0.65333127  0.08703199  0.34799765    -0.30300
H1451       H  0.65551712  0.08379987  0.40542088     0.13900
H1452       H  0.64532282  0.10199070  0.32504181     0.14500
C1453       C  0.99428334  0.14977804  0.35386455    -0.15100
C1454       C  0.52823299  0.13701926  0.34250742    -0.30300
H1455       H  0.99083055  0.17619324  0.35519400     0.13900
H1456       H  0.53205278  0.11062947  0.34190348     0.14500
C1457       C  0.87090496  0.18340655  0.38891365    -0.15100
C1458       C  0.87174941  0.19646003  0.35508612    -0.30300
H1459       H  0.86441510  0.19846739  0.41204061     0.13900
H1460       H  0.88172371  0.18198524  0.33296730     0.14500
C1461       C  0.80571730  0.02321711  0.32128367    -0.15100
C1462       C  0.81611298  0.02805258  0.35591494    -0.30300
H1463       H  0.82272381  0.02605269  0.29871075     0.13900
H1464       H  0.79961203  0.02171453  0.37814256     0.14500
C1465       C  0.88749865  0.40115035  0.21439577    -0.15100
C1466       C  0.89553754  0.38658757  0.24661717    -0.30300
H1467       H  0.86403694  0.39470398  0.20214356     0.13900
H1468       H  0.91905140  0.39287330  0.25883784     0.14500
C1469       C  0.92713005  0.02164032  0.26857137    -0.15100
C1470       C  0.94164236  0.01062431  0.29931838    -0.30300
H1471       H  0.90956273  0.04182233  0.26965175     0.13900
H1472       H  0.95636620  0.98833914  0.29980858     0.14500
C1473       C  0.69420994  0.00562800  0.15991307    -0.15100
C1474       C  0.68237052  0.01776201  0.19133383    -0.30300
H1475       H  0.70660188  0.98203735  0.15877337     0.13900
H1476       H  0.67010225  0.53940225  0.18950334     0.14500
C1477       C  0.56932670  0.03405299  0.09914999    -0.15100
C1478       C  0.55774519  0.02948994  0.13340630    -0.30300
H1479       H  0.55376792  0.02716841  0.07640272     0.13900
H1480       H  0.57414448  0.03266568  0.15644779     0.14500
C1481       C  0.65354079  0.39272831  0.23319729    -0.15100
C1482       C  0.62174026  0.38903400  0.22219744    -0.30300
H1483       H  0.67187792  0.37581701  0.22274017     0.13900
H1484       H  0.60346007  0.40610237  0.23247003     0.14500
C1485       C  0.57978691  0.26056842  0.25934823    -0.15100
C1486       C  0.57628406  0.27479259  0.29209994    -0.30300
H1487       H  0.58884636  0.23557837  0.25713036     0.13900
H1488       H  0.56991904  0.30060717  0.29416158     0.14500
C1489       C  0.52262768  0.40908115  0.08361876    -0.15100
C1490       C  0.51005128  0.37900286  0.08221442    -0.30300
H1491       H  0.54916353  0.41196186  0.08652831     0.13900
H1492       H  0.48354623  0.37580655  0.07946260     0.14500
C1493       C  0.63438423  0.18789249  0.07297007    -0.15100
C1494       C  0.62714633  0.19948602  0.10648498    -0.30300
H1495       H  0.63243906  0.20393629  0.04937710     0.13900
H1496       H  0.63257517  0.18421602  0.13007676     0.14500
C1497       C  0.84082519  0.28092762  0.16578879    -0.15100
C1498       C  0.84787394  0.26566275  0.19735516    -0.30300
H1499       H  0.83309963  0.30644766  0.16474181     0.13900
H1500       H  0.85910223  0.24140233  0.19768775     0.14500
C1501       C  0.76652606  0.16041784  0.12002506    -0.15100
C1502       C  0.76073857  0.12845148  0.11767628    -0.30300
H1503       H  0.74565161  0.17722036  0.11890213     0.13900
H1504       H  0.78163909  0.11191540  0.11453054     0.14500
C1505       C  0.96280775  0.24758406  0.10394342    -0.15100
C1506       C  0.97365859  0.25614421  0.13741476    -0.30300
H1507       H  0.97944928  0.25026010  0.08097848     0.13900
H1508       H  0.95643353  0.25713218  0.15995785     0.14500
C1509       C  0.89790373  0.08900580  0.11032742    -0.15100
C1510       C  0.88996144  0.10064674  0.07689649    -0.30300
H1511       H  0.89377050  0.10452480  0.13376943     0.13900
H1512       H  0.89047920  0.08453159  0.05355880     0.14500
C1513       C  0.87778156  0.20967202  0.91388289    -0.15100
C1514       C  0.89239309  0.21694307  0.94593971    -0.30300
H1515       H  0.85245499  0.20111762  0.91265536     0.13900
H1516       H  0.91661667  0.22827366  0.94683346     0.14500
C1517       C  0.65107199  0.07699447  0.90885858    -0.15100
C1518       C  0.63501402  0.07250362  0.94069627    -0.30300
H1519       H  0.67541657  0.08803617  0.90790527     0.13900
H1520       H  0.61096797  0.06074480  0.94102227     0.14500
C1521       C  0.53262883  0.13371105  0.87092073    -0.15100
C1522       C  0.50164149  0.14308543  0.86439922    -0.30300
H1523       H  0.55164189  0.15196443  0.87554281     0.13900
H1524       H  0.97803473  0.12320233  0.87346735     0.14500
C1525       C  0.75688938  0.26396372  0.96656947    -0.15100
C1526       C  0.77402066  0.27480484  0.99565715    -0.30300
H1527       H  0.76139536  0.23920193  0.95705310     0.13900
H1528       H  0.76975665  0.29962523  0.00510698     0.14500
C1529       C  0.63378447  0.32034185  0.01073148    -0.15100
C1530       C  0.64694425  0.32715645  0.04356258    -0.30300
H1531       H  0.60967861  0.30889083  0.00865668     0.13900
H1532       H  0.67226018  0.33551070  0.04608546     0.14500
C1533       C  0.57080884  0.28729205  0.85300592    -0.15100
C1534       C  0.56165720  0.27372767  0.82101951    -0.30300
H1535       H  0.55331412  0.28735161  0.87534879     0.13900
H1536       H  0.57986103  0.27036115  0.79973371     0.14500
C1537       C  0.64424394  0.43785023  0.87912744    -0.15100
C1538       C  0.61856785  0.44564688  0.85709530    -0.30300
H1539       H  0.65864918  0.45732929  0.89133283     0.13900
H1540       H  0.60304570  0.42626662  0.84647133     0.14500
C1541       C  0.76569461  0.99596185  0.97282914    -0.15100
C1542       C  0.76245128  0.02725969  0.98485414    -0.30300
H1543       H  0.74897611  0.47808487  0.97801015     0.13900
H1544       H  0.78135687  0.04483997  0.97719721     0.14500
C1545       C  0.90176927  0.46975116  0.00823806    -0.15100
C1546       C  0.88725589  0.46315612  0.04029287    -0.30300
H1547       H  0.92579346  0.48155956  0.00723215     0.13900
H1548       H  0.86186107  0.45471906  0.04155300     0.14500
C1549       C  0.77629526  0.40197059  0.83269250    -0.15100
C1550       C  0.76830337  0.37117251  0.84133068    -0.30300
H1551       H  0.75719138  0.41959217  0.82554543     0.13900
H1552       H  0.78818336  0.35473561  0.84961796     0.14500
C1553       C  0.96119291  0.50682567  0.85994352    -0.15100
C1554       C  0.96746325  0.01946273  0.83461685    -0.30300
H1555       H  0.97155367  0.51869281  0.88368178     0.13900
H1556       H  0.94736181  0.03398018  0.82334799     0.14500
C1557       C  0.90396010  0.34962969  0.87864512    -0.15100
C1558       C  0.90464652  0.33473380  0.84588350    -0.30300
H1559       H  0.91219928  0.33647902  0.90277848     0.13900
H1560       H  0.89357860  0.34708436  0.82260558     0.14500
C1561       C  0.89943431  0.14411334  0.73443569    -0.15100
C1562       C  0.86708053  0.13942762  0.72698777    -0.30300
H1563       H  0.91729954  0.12771241  0.72214411     0.13900
H1564       H  0.84913580  0.15572680  0.73930426     0.14500
C1565       C  0.88749715  0.07357012  0.55059490    -0.15100
C1566       C  0.87512765  0.06259157  0.51889286    -0.30300
H1567       H  0.91121645  0.08587823  0.55187178     0.13900
H1568       H  0.85328616  0.04713293  0.51854711     0.14500
C1569       C  0.82573436  0.02527187  0.80187650    -0.15100
C1570       C  0.82773771  0.01053298  0.76938481    -0.30300
H1571       H  0.82006707  0.55738882  0.79987732     0.13900
H1572       H  0.83775318  0.98587601  0.76730440     0.14500
C1573       C  0.65551976  0.14072326  0.71841976    -0.15100
C1574       C  0.62503266  0.13791839  0.73342373    -0.30300
H1575       H  0.67356976  0.12172975  0.72442903     0.13900
H1576       H  0.60730522  0.15739264  0.72820501     0.14500
C1577       C  0.63768922  0.20602039  0.54059280    -0.15100
C1578       C  0.64928753  0.21804915  0.50886089    -0.30300
H1579       H  0.61456641  0.19260520  0.54184258     0.13900
H1580       H  0.67052883  0.23430981  0.50828112     0.14500
C1581       C  0.68394275  0.27039948  0.76148507    -0.15100
C1582       C  0.69319082  0.25640950  0.79311655    -0.30300
H1583       H  0.67075803  0.29366936  0.76112566     0.13900
H1584       H  0.70300535  0.23161341  0.79442154     0.14500
C1585       C  0.75587490  0.12800815  0.59147608    -0.15100
C1586       C  0.77120057  0.15696130  0.59095949    -0.30300
H1587       H  0.72910528  0.12721767  0.58979444     0.13900
H1588       H  0.79795594  0.15760706  0.59289211     0.14500
C1589       C  0.51343144  0.28676091  0.47969444    -0.15100
C1590       C  0.51914500  0.25469363  0.47209807    -0.30300
H1591       H  0.02987739  0.30759876  0.47615133     0.13900
H1592       H  0.50335122  0.23642067  0.48479214     0.14500
C1593       C  0.89534544  0.32522204  0.41968835    -0.15100
C1594       C  0.88070919  0.32161498  0.45220944    -0.30300
H1595       H  0.92115283  0.33223594  0.41779593     0.13900
H1596       H  0.85600502  0.31146916  0.45437711     0.14500
C1597       C  0.95548073  0.26200021  0.66676018    -0.15100
C1598       C  0.95000065  0.27387589  0.70027500    -0.30300
H1599       H  0.96287220  0.23660889  0.66312124     0.13900
H1600       H  0.93994563  0.29836292  0.70376524     0.14500
C1601       C  0.82391500  0.28158995  0.60670891    -0.15100
C1602       C  0.80975882  0.28015638  0.63992021    -0.30300
H1603       H  0.81065942  0.27164441  0.58359546     0.13900
H1604       H  0.82360525  0.28665990  0.66406709     0.14500
C1605       C  0.87592240  0.44008201  0.57969697    -0.15100
C1606       C  0.86969879  0.45175745  0.61335572    -0.30300
H1607       H  0.87384447  0.45624809  0.55621247     0.13900
H1608       H  0.87519634  0.43629530  0.63678581     0.14500
C1609       C  0.51017228  0.03051698  0.47462263    -0.15100
C1610       C  0.51620927  0.99838615  0.48217634    -0.30300
H1611       H  0.02078361  0.04670195  0.49028234     0.13900
H1612       H  0.50118239  0.98005786  0.46877551     0.14500
C1613       C  0.57978446  0.02002310  0.66416135    -0.15100
C1614       C  0.59297965  0.00733341  0.69491389    -0.30300
H1615       H  0.57592226  0.54637480  0.66589872     0.13900
H1616       H  0.60722937  0.98471342  0.69400940     0.14500
C1617       C  0.63285624  0.45787185  0.41212067    -0.15100
C1618       C  0.64244696  0.47354910  0.44239209    -0.30300
H1619       H  0.61115237  0.44227909  0.41177079     0.13900
H1620       H  0.66195503  0.49183299  0.44100427     0.14500
C1621       C  0.99999993  0.40489151  0.62077255    -0.15100
C1622       C  0.52744803  0.39115281  0.61320721    -0.30300
H1623       H  0.99687229  0.43128638  0.61796126     0.13900
H1624       H  0.53052014  0.36484476  0.61698696     0.14500
C1625       C  0.70911493  0.50375601  0.59771012    -0.15100
C1626       C  0.71209647  0.00674183  0.63974501    -0.30300
H1627       H  0.72582072  0.50618810  0.57476958     0.13900
H1628       H  0.69585783  0.00117092  0.66241385     0.12900
C1629       C  0.64838681  0.34869719  0.56938084    -0.15100
C1630       C  0.64933689  0.33481033  0.60309790    -0.30300
H1631       H  0.65597361  0.33469054  0.54585912     0.13900
H1632       H  0.63862866  0.34822081  0.62560580     0.14500
Fe1633     Fe  0.58465189  0.92273366  0.52907736     1.65800
Fe1634     Fe  0.61631597  0.93865474  0.61119888     1.73200
Fe1635     Fe  0.61105863  0.50577087  0.55057561     1.54400
O1636       O  0.62325504  0.98814789  0.49800977    -0.80400
O1637       O  0.58505432  0.97097286  0.63381165    -0.78700
O1638       O  0.61943543  0.93349887  0.49113843    -0.82900
O1639       O  0.55228220  0.95602918  0.50332361    -0.77700
O1640       O  0.65535547  0.00180104  0.56611805    -0.79500
O1641       O  0.57969799  0.90412016  0.61533801    -0.82200
C1642       C  0.54384355  0.98602428  0.50630671     0.98500
C1643       C  0.62857220  0.96175798  0.48065375     1.06000
O1644       O  0.60297392  0.95419385  0.56282118    -1.11200
O1645       O  0.64761504  0.90408754  0.59125734    -0.73700
O1646       O  0.61406164  0.88374424  0.54920600    -0.77100
O1647       O  0.56201606  0.51319036  0.53620077    -0.77800
C1648       C  0.63781204  0.88057992  0.57180270     0.97400
O1649       O  0.54892157  0.91222153  0.56592352    -0.75800
O1650       O  0.65520593  0.97093695  0.61621217    -0.81000
C1651       C  0.59277373  0.50396731  0.63306862     1.00100
C1652       C  0.66868086  0.99180044  0.59539129     1.06000
O1653       O  0.59970294  0.51993640  0.60405885    -0.76600
C1654       C  0.55285649  0.90197308  0.59824966     1.04300
Fe1655     Fe  0.94067973  0.85706625  0.54007361     1.65800
Fe1656     Fe  0.90253629  0.83866081  0.61983897     1.73200
Fe1657     Fe  0.91864021  0.77796303  0.55771595     1.54400
O1658       O  0.89926781  0.79204218  0.50819905    -0.80400
O1659       O  0.92767432  0.80237250  0.64550674    -0.78700
O1660       O  0.90852772  0.84610809  0.49934808    -0.82900
O1661       O  0.97554703  0.82560818  0.51597106    -0.77700
O1662       O  0.87075631  0.77205157  0.57650097    -0.79500
O1663       O  0.94204131  0.86941604  0.62946693    -0.82200
C1664       C  0.98249701  0.79515846  0.51562005     0.98500
C1665       C  0.89664629  0.81862049  0.48995142     1.06000
O1666       O  0.92032255  0.82438158  0.57234479    -1.11200
O1667       O  0.87590207  0.87741371  0.59957715    -0.73700
O1668       O  0.91029351  0.89615259  0.55736996    -0.77100
O1669       O  0.96574886  0.77473821  0.53421319    -0.77800
C1670       C  0.88658134  0.90041711  0.57960577     0.97400
O1671       O  0.97372566  0.86804993  0.57967107    -0.75800
O1672       O  0.86034944  0.80994670  0.61804271    -0.81000
C1673       C  0.93929885  0.77429928  0.63848110     1.00100
C1674       C  0.85196496  0.78503099  0.59990077     1.06000
O1675       O  0.93793765  0.76134558  0.60711349    -0.76600
C1676       C  0.96862400  0.87546773  0.61263780     1.04300
Fe1677     Fe  0.72174219  0.70767370  0.67641189     1.65800
Fe1678     Fe  0.64382335  0.73326716  0.65801429     1.73200
Fe1679     Fe  0.70350691  0.74488064  0.59695020     1.54400
O1680       O  0.75241294  0.75226126  0.60929713    -0.80400
O1681       O  0.62959231  0.70785441  0.61120282    -0.78700
O1682       O  0.75680902  0.74490512  0.66868416    -0.82900
O1683       O  0.74021771  0.68165861  0.63299157    -0.77700
O1684       O  0.69180851  0.79202343  0.61044120    -0.79500
O1685       O  0.64048144  0.68917682  0.68765579    -0.82200
C1686       C  0.73243962  0.67795809  0.59961775     0.98500
C1687       C  0.76845693  0.75501041  0.63854213     1.06000
O1688       O  0.68998887  0.72894634  0.64483475    -1.11200
O1689       O  0.65677355  0.75630212  0.70513238    -0.73700
O1690       O  0.70417545  0.73136882  0.72154333    -0.77100
O1691       O  0.71411171  0.69767158  0.58194762    -0.77800
C1692       C  0.67942592  0.74962521  0.72798625     0.97400
O1693       O  0.69112783  0.66809561  0.68918727    -0.75800
O1694       O  0.64157283  0.78010934  0.63240684    -0.81000
C1695       C  0.63840737  0.71735046  0.57981637     1.00100
C1696       C  0.66255693  0.80037726  0.61886910     1.06000
O1697       O  0.65734941  0.74145579  0.57640634    -0.76600
C1698       C  0.66059512  0.66663851  0.69712860     1.04300
Fe1699     Fe  0.79564064  0.57925285  0.67893299     1.65800
Fe1700     Fe  0.87174839  0.54752387  0.66589157     1.73200
Fe1701     Fe  0.81398770  0.54462815  0.59936181     1.54400
O1702       O  0.77496141  0.51784967  0.61727085    -0.80400
O1703       O  0.89372624  0.55829669  0.61509037    -0.78700
O1704       O  0.75492303  0.55406357  0.65653416    -0.82900
O1705       O  0.79350133  0.61562117  0.64071598    -0.77700
O1706       O  0.84226206  0.50173124  0.59765273    -0.79500
O1707       O  0.88030292  0.59544486  0.68451983    -0.82200
C1708       C  0.78610022  0.61300011  0.60750682     0.98500
C1709       C  0.75132163  0.52950136  0.63553554     1.06000
O1710       O  0.82721388  0.55643897  0.64857243    -1.11200
O1711       O  0.85333799  0.53457797  0.71678888    -0.73700
O1712       O  0.79874253  0.54438216  0.71867638    -0.77100
O1713       O  0.78446469  0.58563205  0.59162570    -0.77800
C1714       C  0.82509672  0.53263205  0.73203554     0.97400
O1715       O  0.83069842  0.60733800  0.70651249    -0.75800
O1716       O  0.86802732  0.49859791  0.65094605    -0.81000
C1717       C  0.88148260  0.56729392  0.58457654     1.00100
C1718       C  0.85695923  0.98096869  0.62428374     1.06000
O1719       O  0.85107663  0.57181238  0.57967986    -0.76600
C1720       C  0.86159823  0.61258679  0.70484933     1.04300
Fe1721     Fe  0.83451877  0.92214250  0.92760255     1.65800
Fe1722     Fe  0.86122666  0.99981422  0.90989577     1.73200
Fe1723     Fe  0.87059317  0.94161270  0.84738588     1.54400
O1724       O  0.88155821  0.89366932  0.85972964    -0.80400
O1725       O  0.83425425  0.52140522  0.86166636    -0.78700
O1726       O  0.87021669  0.88559575  0.91788692    -0.82900
O1727       O  0.80589175  0.90550079  0.88485934    -0.77700
O1728       O  0.91807358  0.95455513  0.85996610    -0.79500
O1729       O  0.81727654  0.50620941  0.93683531    -0.82200
C1730       C  0.80292145  0.91196142  0.85096380     0.98500
C1731       C  0.88267895  0.87600794  0.88803531     1.06000
O1732       O  0.85535628  0.95420300  0.89559525    -1.11200
O1733       O  0.88735972  0.98421140  0.95468336    -0.73700
O1734       O  0.86149368  0.93776194  0.97209740    -0.77100
O1735       O  0.82357845  0.92865156  0.83276820    -0.77800
C1736       C  0.88167745  0.96119926  0.97746525     0.97400
O1737       O  0.79574988  0.95337206  0.94270196    -0.75800
O1738       O  0.90629225  0.00449481  0.88040403    -0.81000
C1739       C  0.84060035  0.51408069  0.82902172     1.00100
C1740       C  0.92639928  0.98390090  0.86635026     1.06000
O1741       O  0.86261994  0.98724598  0.82611540    -0.76600
C1742       C  0.79487257  0.98362536  0.95108107     1.04300
Fe1743     Fe  0.70044647  0.84910181  0.92389572     1.65800
Fe1744     Fe  0.66357812  0.77679248  0.90775674     1.73200
Fe1745     Fe  0.66536757  0.83610128  0.84335075     1.54400
O1746       O  0.64076845  0.87671585  0.86148501    -0.80400
O1747       O  0.67268391  0.75585763  0.85678370    -0.78700
O1748       O  0.67966592  0.89255899  0.90019970    -0.82900
O1749       O  0.73784902  0.84853021  0.88730673    -0.77700
O1750       O  0.62034063  0.81011375  0.83974545    -0.79500
O1751       O  0.71135153  0.76511927  0.92426807    -0.82200
C1752       C  0.73629799  0.85843375  0.85477590     0.98500
C1753       C  0.65552925  0.89916988  0.87872578     1.06000
O1754       O  0.67536525  0.82078894  0.89223243    -1.11200
O1755       O  0.65236586  0.79409743  0.95941692    -0.73700
O1756       O  0.66401311  0.84801409  0.96165755    -0.77100
O1757       O  0.70911824  0.86270380  0.83817192    -0.77800
C1758       C  0.65134976  0.82208118  0.97476946     0.97400
O1759       O  0.72521848  0.81099780  0.95244801    -0.75800
O1760       O  0.61482588  0.78415223  0.89287492    -0.81000
C1761       C  0.68410117  0.76818006  0.82748024     1.00100
C1762       C  0.60331697  0.79328470  0.86227605     1.06000
O1763       O  0.69104821  0.79809898  0.82397037    -0.76600
C1764       C  0.72924966  0.78039024  0.94691318     1.04300
Fe1765     Fe  0.54674685  0.56805615  0.78246950     1.65800
Fe1766     Fe  0.56574532  0.53635138  0.86460482     1.73200
Fe1767     Fe  0.62526515  0.54371060  0.80224269     1.54400
O1768       O  0.61132144  0.51727922  0.75729592    -0.80400
O1769       O  0.61095694  0.54421787  0.88619984    -0.78700
O1770       O  0.56442726  0.54185379  0.73883061    -0.82900
O1771       O  0.57710901  0.60715430  0.76737153    -0.77700
O1772       O  0.63306028  0.99733774  0.82705872    -0.79500
O1773       O  0.55292686  0.58418087  0.87578605    -0.82200
C1774       C  0.60762129  0.60843474  0.75930908     0.98500
C1775       C  0.58885961  0.52281316  0.73376408     1.06000
O1776       O  0.57909484  0.54927452  0.81573364    -1.11200
O1777       O  0.51765470  0.52549940  0.85238945    -0.73700
O1778       O  0.51182377  0.53107080  0.79292177    -0.77100
O1779       O  0.62778528  0.58609194  0.76931771    -0.77800
C1780       C  0.50120169  0.52128952  0.82368836     0.97400
O1781       O  0.52750835  0.59677463  0.82335422    -0.75800
O1782       O  0.57932025  0.48855281  0.85497947    -0.81000
C1783       C  0.63320134  0.56474875  0.87880955     1.00100
C1784       C  0.61179643  0.97751310  0.84098938     1.06000
O1785       O  0.64105222  0.57142903  0.84625322    -0.76600
C1786       C  0.53502770  0.60289661  0.85629387     1.04300
Fe1787     Fe  0.98512701  0.70530446  0.78736972     1.65800
Fe1788     Fe  0.96614346  0.73931619  0.86676733     1.73200
Fe1789     Fe  0.90841053  0.73479145  0.80008814     1.54400
O1790       O  0.92720294  0.74891986  0.74951971    -0.80400
O1791       O  0.92936520  0.71188456  0.88662852    -0.78700
O1792       O  0.98235380  0.74188198  0.74934444    -0.82900
O1793       O  0.95092852  0.67803648  0.75733194    -0.77700
O1794       O  0.91010973  0.78342784  0.81560395    -0.79500
O1795       O  0.99551022  0.69766237  0.87399453    -0.82200
C1796       C  0.92033917  0.67137675  0.75943021     0.98500
C1797       C  0.95578553  0.75272613  0.73536715     1.06000
O1798       O  0.95303397  0.72725802  0.81768398    -1.11200
O1799       O  0.00543133  0.76653475  0.84902698    -0.73700
O1800       O  0.51653701  0.73551072  0.79624547    -0.77100
O1801       O  0.90146161  0.68693504  0.78099624    -0.77800
C1802       C  0.52340385  0.75861855  0.81856036     0.97400
O1803       O  0.98618004  0.66812692  0.82445070    -0.75800
O1804       O  0.93709688  0.78212703  0.86832678    -0.81000
C1805       C  0.89880764  0.71452156  0.88125302     1.00100
C1806       C  0.91855029  0.79664062  0.84533304     1.06000
O1807       O  0.88638480  0.72271103  0.85054043    -0.76600
C1808       C  0.99343821  0.67034655  0.85776315     1.04300
Fe1809     Fe  0.83287266  0.68602290  0.03133664     1.65800
Fe1810     Fe  0.87036528  0.69496441  0.11222303     1.73200
Fe1811     Fe  0.86554660  0.75928735  0.05385620     1.54400
O1812       O  0.87692353  0.74714618  0.00039500    -0.80400
O1813       O  0.84443202  0.72936333  0.13808068    -0.78700
O1814       O  0.86615670  0.69375987  0.99082547    -0.82900
O1815       O  0.80392241  0.72388112  0.00845455    -0.77700
O1816       O  0.91525215  0.75480833  0.06770851    -0.79500
O1817       O  0.82876143  0.66561076  0.11685819    -0.82200
C1818       C  0.79903128  0.75402181  0.01558672     0.98500
C1819       C  0.87694204  0.72156933  0.98053273     1.06000
O1820       O  0.85719752  0.71349129  0.06520109    -1.11200
O1821       O  0.89638840  0.65813324  0.08864006    -0.73700
O1822       O  0.85846930  0.64268774  0.04849853    -0.77100
O1823       O  0.81689505  0.76903818  0.03850631    -0.77800
C1824       C  0.88327402  0.63634319  0.06907777     0.97400
O1825       O  0.79740685  0.68025494  0.06990712    -0.75800
O1826       O  0.91357907  0.72273105  0.11688577    -0.81000
C1827       C  0.84633156  0.76013475  0.13565807     1.00100
C1828       C  0.92844374  0.74319034  0.09648122     1.06000
O1829       O  0.85494289  0.77523576  0.10671308    -0.76600
C1830       C  0.80082135  0.66925952  0.10185263     1.04300
Fe1831     Fe  0.55690107  0.82332281  0.17706359     1.65800
Fe1832     Fe  0.63131066  0.79210310  0.15546865     1.73200
Fe1833     Fe  0.56711384  0.78502763  0.09740140     1.54400
O1834       O  0.53062330  0.75844523  0.12193414    -0.80400
O1835       O  0.64729950  0.80283524  0.10254053    -0.78700
O1836       O  0.51383171  0.79770452  0.15924701    -0.82900
O1837       O  0.54963199  0.85783024  0.13735378    -0.77700
O1838       O  0.59675676  0.74334671  0.09365206    -0.79500
O1839       O  0.64020462  0.84049504  0.16947325    -0.82200
C1840       C  0.53552172  0.85237408  0.10720702     0.98500
C1841       C  0.50773593  0.77299381  0.13890005     1.06000
O1842       O  0.58521123  0.79943219  0.14382798    -1.11200
O1843       O  0.61887937  0.78039744  0.20879781    -0.73700
O1844       O  0.56483337  0.79000098  0.21790859    -0.77100
O1845       O  0.53527066  0.82448036  0.09242816    -0.77800
C1846       C  0.59271337  0.77887911  0.22804171     0.97400
O1847       O  0.59482007  0.85266551  0.20012927    -0.75800
O1848       O  0.62796086  0.74285143  0.14334616    -0.81000
C1849       C  0.63219249  0.81178875  0.07369931     1.00100
C1850       C  0.61716785  0.72931713  0.11482999     1.06000
O1851       O  0.60113654  0.81186931  0.07089601    -0.76600
C1852       C  0.62521769  0.85770661  0.19282899     1.04300
Fe1853     Fe  0.70191851  0.60626886  0.02761515     1.65800
Fe1854     Fe  0.66488501  0.59106357  0.10730366     1.73200
Fe1855     Fe  0.67007011  0.53065812  0.04419151     1.54400
O1856       O  0.65544467  0.54802739  0.99341338    -0.80400
O1857       O  0.68978541  0.55437664  0.13054503    -0.78700
O1858       O  0.66744413  0.60183025  0.98767349    -0.82900
O1859       O  0.73069511  0.57102113  0.00205141    -0.77700
O1860       O  0.62088239  0.53287479  0.06057052    -0.79500
O1861       O  0.70721298  0.61885871  0.11464852    -0.82200
C1862       C  0.73580985  0.54036284  0.00427516     0.98500
C1863       C  0.65430785  0.57552298  0.97648622     1.06000
O1864       O  0.67830929  0.57574704  0.05927101    -1.11200
O1865       O  0.63945563  0.62991266  0.08677171    -0.73700
O1866       O  0.67707792  0.64812932  0.04777442    -0.77100
O1867       O  0.71785630  0.52189327  0.02410909    -0.77800
C1868       C  0.65229712  0.65289341  0.06849957     0.97400
O1869       O  0.73794684  0.60906558  0.06592222    -0.75800
O1870       O  0.62088037  0.56461627  0.10940829    -0.81000
C1871       C  0.69032850  0.52386379  0.12551716     1.00100
C1872       C  0.60665820  0.54453251  0.08843319     1.06000
O1873       O  0.68342475  0.51053710  0.09512542    -0.76600
C1874       C  0.73495297  0.61669584  0.09893532     1.04300
Fe1875     Fe  0.97233292  0.96415229  0.18528647     1.65800
Fe1876     Fe  0.89698047  0.99057659  0.15904290     1.73200
Fe1877     Fe  0.96323670  0.00215272  0.10400598     1.54400
O1878       O  0.50049976  0.02621181  0.12077948    -0.80400
O1879       O  0.88411764  0.97725816  0.10584104    -0.78700
O1880       O  0.52075812  0.99098965  0.16141610    -0.82900
O1881       O  0.98389892  0.93016645  0.14699070    -0.77700
O1882       O  0.93798901  0.54306596  0.09361244    -0.79500
O1883       O  0.89032627  0.94194193  0.17514310    -0.82200
C1884       C  0.99893854  0.93653760  0.11756243     0.98500
C1885       C  0.52569546  0.51541811  0.13420810     1.06000
O1886       O  0.94396470  0.98617642  0.14978957    -1.11200
O1887       O  0.91096924  0.50590204  0.20825533    -0.73700
O1888       O  0.96052076  0.99686718  0.22464536    -0.77100
O1889       O  0.99715801  0.96405992  0.10142715    -0.77800
C1890       C  0.93611842  0.50748779  0.22901894     0.97400
O1891       O  0.93542391  0.93212749  0.20747248    -0.75800
O1892       O  0.90383211  0.54215174  0.14081016    -0.81000
C1893       C  0.90069760  0.97056021  0.07733772     1.00100
C1894       C  0.91629153  0.55655797  0.11339409     1.06000
O1895       O  0.93157987  0.97448257  0.07510407    -0.76600
C1896       C  0.90543229  0.92553929  0.19948815     1.04300
Fe1897     Fe  0.94584506  0.59713436  0.43495083     1.65800
Fe1898     Fe  0.91383642  0.52378609  0.41097054     1.73200
Fe1899     Fe  0.90747850  0.58962831  0.35446214     1.54400
O1900       O  0.88044737  0.62494449  0.37954957    -0.80400
O1901       O  0.92565171  0.50963101  0.35776511    -0.78700
O1902       O  0.91866094  0.64022659  0.41952068    -0.82900
O1903       O  0.98014226  0.60633165  0.39570150    -0.77700
O1904       O  0.86572600  0.56089126  0.34854292    -0.79500
O1905       O  0.96228404  0.51374907  0.42708500    -0.82200
C1906       C  0.97451680  0.62121117  0.36598394     0.98500
C1907       C  0.89382624  0.64674417  0.39895862     1.06000
O1908       O  0.92171594  0.56999561  0.40071956    -1.11200
O1909       O  0.90173855  0.53437750  0.46462077    -0.73700
O1910       O  0.91358286  0.58725050  0.47588047    -0.77100
O1911       O  0.94656726  0.62164078  0.35092821    -0.77800
C1912       C  0.90234694  0.55938652  0.48530947     0.97400
O1913       O  0.97630550  0.55914868  0.45617170    -0.75800
O1914       O  0.86411800  0.52787389  0.39679999    -0.81000
C1915       C  0.93416179  0.52555567  0.32926246     1.00100
C1916       C  0.85097556  0.54004364  0.36830885     1.06000
O1917       O  0.93455635  0.55651666  0.32730645    -0.76600
C1918       C  0.98058680  0.52872648  0.44963067     1.04300
Fe1919     Fe  0.58230738  0.67411041  0.42745516     1.65800
Fe1920     Fe  0.61194109  0.75036267  0.40931924     1.73200
Fe1921     Fe  0.62049667  0.68870434  0.34769976     1.54400
O1922       O  0.64763993  0.65165326  0.37002256    -0.80400
O1923       O  0.59754716  0.76828477  0.35775992    -0.78700
O1924       O  0.61004926  0.63317692  0.40920899    -0.82900
O1925       O  0.54799906  0.66660910  0.38794980    -0.77700
O1926       O  0.66269823  0.71785044  0.34428417    -0.79500
O1927       O  0.56391674  0.75847622  0.43017478    -0.82200
C1928       C  0.55375283  0.65419296  0.35717885     0.98500
C1929       C  0.63471722  0.62853843  0.38818303     1.06000
O1930       O  0.60536980  0.70467121  0.39524883    -1.11200
O1931       O  0.62702001  0.73497091  0.46065588    -0.73700
O1932       O  0.61484699  0.68152779  0.46893828    -0.77100
O1933       O  0.58133414  0.65662803  0.34136362    -0.77800
C1934       C  0.62727734  0.70842354  0.47936712     0.97400
O1935       O  0.55074812  0.70902945  0.45105696    -0.75800
O1936       O  0.66138433  0.74977987  0.39282435    -0.81000
C1937       C  0.59134702  0.75431650  0.32748373     1.00100
C1938       C  0.67607238  0.73872808  0.36491037     1.06000
O1939       O  0.59362956  0.72370138  0.32270810    -0.76600
C1940       C  0.54573679  0.73988302  0.44975017     1.04300
Fe1941     Fe  0.80688068  0.82033608  0.28329417     1.65800
Fe1942     Fe  0.81443988  0.78318570  0.36494911     1.73200
Fe1943     Fe  0.88128297  0.79163940  0.31019797     1.54400
O1944       O  0.87211481  0.77868238  0.25676689    -0.80400
O1945       O  0.84640475  0.81130547  0.39245466    -0.78700
O1946       O  0.81851356  0.78758406  0.24409809    -0.82900
O1947       O  0.84466616  0.85169159  0.26201522    -0.77700
O1948       O  0.87883035  0.74222671  0.32473046    -0.79500
O1949       O  0.78089567  0.82170711  0.36657452    -0.82200
C1950       C  0.87486273  0.85735017  0.26998865     0.98500
C1951       C  0.84712735  0.77745342  0.23575789     1.06000
O1952       O  0.83437247  0.79775056  0.31900316    -1.11200
O1953       O  0.77998594  0.75513059  0.33962545    -0.73700
O1954       O  0.76405436  0.79226884  0.29847705    -0.77100
O1955       O  0.88973346  0.84009528  0.29386163    -0.77800
C1956       C  0.75786672  0.76772506  0.31956776     0.97400
O1957       O  0.79564506  0.85478395  0.32104674    -0.75800
O1958       O  0.84475207  0.74188171  0.37200739    -0.81000
C1959       C  0.87750407  0.81281063  0.39091185     1.00100
C1960       C  0.86640844  0.72806836  0.35241722     1.06000
O1961       O  0.89418619  0.80440131  0.36316438    -0.76600
C1962       C  0.77998064  0.84911169  0.35017206     1.04300
Fe1963     Fe  0.72356602  0.95911926  0.27754735     1.65800
Fe1964     Fe  0.71346157  0.99719081  0.35735287     1.73200
Fe1965     Fe  0.64889860  0.98964158  0.30011064     1.54400
O1966       O  0.66339803  0.49991388  0.24471058    -0.80400
O1967       O  0.68028509  0.96967990  0.38417581    -0.78700
O1968       O  0.71424986  0.99173945  0.23648534    -0.82900
O1969       O  0.68575989  0.92888783  0.25564251    -0.77700
O1970       O  0.64911438  0.53404589  0.31224151    -0.79500
O1971       O  0.74633430  0.95850399  0.36178887    -0.82200
C1972       C  0.65535184  0.92382700  0.26300443     0.98500
C1973       C  0.68927214  0.50219707  0.22521543     1.06000
O1974       O  0.69516616  0.98257018  0.31113225    -1.11200
O1975       O  0.74893440  0.52735501  0.33313551    -0.73700
O1976       O  0.76628507  0.98631540  0.29417422    -0.77100
O1977       O  0.64024685  0.94116312  0.28619554    -0.77800
C1978       C  0.77288830  0.51583914  0.31531168     0.97400
O1979       O  0.73244214  0.92474398  0.31716069    -0.75800
O1980       O  0.68262606  0.53716359  0.35983917    -0.81000
C1981       C  0.64920226  0.96972513  0.38174476     1.00100
C1982       C  0.66035291  0.54916939  0.33969681     1.06000
O1983       O  0.63370724  0.97871412  0.35319080    -0.76600
C1984       C  0.74696142  0.93066184  0.34691516     1.04300
C1985       C  0.75770680  0.87443531  0.36287732    -0.15100
C1986       C  0.76808106  0.90536718  0.36232034    -0.30300
H1987       H  0.73147174  0.86897002  0.36228655     0.13900
H1988       H  0.79430902  0.91077468  0.36369595     0.14500
C1989       C  0.71049975  0.74993476  0.35732076    -0.15100
C1990       C  0.72343714  0.75505140  0.32366511    -0.30300
H1991       H  0.72544403  0.75607499  0.38082342     0.13900
H1992       H  0.70798793  0.75246608  0.29975974     0.14500
C1993       C  0.64715718  0.59487890  0.38207859    -0.15100
C1994       C  0.64766770  0.58240204  0.34808840    -0.30300
H1995       H  0.65405973  0.57975332  0.40528451     0.13900
H1996       H  0.63771499  0.59690923  0.32572291     0.14500
C1997       C  0.00055341  0.64113216  0.35056198    -0.15100
C1998       C  0.52827863  0.63376825  0.34141267    -0.30300
H1999       H  0.99553256  0.66718545  0.34714892     0.13900
H2000       H  0.53354418  0.60768487  0.33953690     0.14500
C2001       C  0.88182442  0.68117532  0.39452666    -0.15100
C2002       C  0.87680340  0.69373377  0.36070852    -0.30300
H2003       H  0.87977200  0.69683303  0.41813710     0.13900
H2004       H  0.88257994  0.67848116  0.33746840     0.14500
C2005       C  0.80631599  0.52865225  0.32319661    -0.15100
C2006       C  0.81713415  0.52983489  0.35802431    -0.30300
H2007       H  0.82305738  0.53385220  0.30087460     0.13900
H2008       H  0.80107910  0.52114529  0.37968314     0.14500
C2009       C  0.88625485  0.89847911  0.21867903    -0.15100
C2010       C  0.89440651  0.88435440  0.25112647    -0.30300
H2011       H  0.86326073  0.89101358  0.20608761     0.13900
H2012       H  0.91740994  0.89169077  0.26378556     0.14500
C2013       C  0.93153759  0.52261057  0.26417601    -0.15100
C2014       C  0.94156188  0.50844355  0.29543382    -0.30300
H2015       H  0.91692825  0.54501014  0.26460277     0.13900
H2016       H  0.95283530  0.48424529  0.29586007     0.14500
C2017       C  0.69662055  0.50455077  0.15857007    -0.15100
C2018       C  0.68532355  0.51740160  0.18988940    -0.30300
H2019       H  0.70862350  0.48074938  0.15767194     0.13900
H2020       H  0.66684308  0.03954945  0.19102740     0.14500
C2021       C  0.57199729  0.53442373  0.09591038    -0.15100
C2022       C  0.55932717  0.52964375  0.12963121    -0.30300
H2023       H  0.55706351  0.52786845  0.07253843     0.13900
H2024       H  0.57498730  0.53254680  0.15332815     0.14500
C2025       C  0.63586113  0.89761481  0.24394004    -0.15100
C2026       C  0.64477884  0.88377815  0.21203770    -0.30300
H2027       H  0.61230088  0.89074571  0.25577849     0.13900
H2028       H  0.66832710  0.89066867  0.20018535     0.14500
C2029       C  0.59548936  0.76196430  0.26281509    -0.15100
C2030       C  0.58391571  0.77362555  0.29454674    -0.30300
H2031       H  0.61065839  0.73993859  0.26258284     0.13900
H2032       H  0.57196279  0.79742154  0.29612832     0.14500
C2033       C  0.52708262  0.90912164  0.09370103    -0.15100
C2034       C  0.51610615  0.87856595  0.09098485    -0.30300
H2035       H  0.55334191  0.91361721  0.09700410     0.13900
H2036       H  0.48990484  0.87390266  0.08737796     0.14500
C2037       C  0.63894931  0.68638095  0.07355570    -0.15100
C2038       C  0.62849922  0.69577346  0.10672653    -0.30300
H2039       H  0.64006119  0.70399902  0.05129921     0.13900
H2040       H  0.63100984  0.67895015  0.12961927     0.14500
C2041       C  0.84073210  0.77761357  0.16954238    -0.15100
C2042       C  0.85189588  0.76328077  0.20025121    -0.30300
H2043       H  0.82903527  0.80160752  0.16964984     0.13900
H2044       H  0.86674187  0.74105151  0.19910994     0.14500
C2045       C  0.77110170  0.65784371  0.11994943    -0.15100
C2046       C  0.76495649  0.62592999  0.11786879    -0.30300
H2047       H  0.75031633  0.67477001  0.11918429     0.13900
H2048       H  0.78572143  0.60924981  0.11460906     0.14500
C2049       C  0.96267508  0.75343455  0.10571801    -0.15100
C2050       C  0.97311488  0.76097477  0.13972878    -0.30300
H2051       H  0.97936807  0.75743792  0.08303086     0.13900
H2052       H  0.95579794  0.76066274  0.16221938     0.14500
C2053       C  0.90589034  0.59081759  0.10572676    -0.15100
C2054       C  0.89608613  0.60220270  0.07277003    -0.30300
H2055       H  0.90346200  0.60670637  0.12914404     0.13900
H2056       H  0.89481346  0.58572036  0.04978537     0.14500
C2057       C  0.87878439  0.71104256  0.91420081    -0.15100
C2058       C  0.89128773  0.72476807  0.94451892    -0.30300
H2059       H  0.85533308  0.69822291  0.91410629     0.13900
H2060       H  0.91302029  0.74033094  0.94268085     0.14500
C2061       C  0.65064715  0.57866357  0.91011288    -0.15100
C2062       C  0.63588096  0.57622971  0.94280794    -0.30300
H2063       H  0.67607432  0.58670972  0.90748976     0.13900
H2064       H  0.61062076  0.56752000  0.94498280     0.14500
C2065       C  0.52265810  0.63384994  0.87101460    -0.15100
C2066       C  0.49222534  0.64273683  0.86122000    -0.30300
H2067       H  0.54063310  0.65213271  0.87910321     0.13900
H2068       H  0.98433890  0.61969353  0.87022675     0.14500
C2069       C  0.75521239  0.76130992  0.96731249    -0.15100
C2070       C  0.77233518  0.77294016  0.99617240    -0.30300
H2071       H  0.75996716  0.73639818  0.95844201     0.13900
H2072       H  0.76757155  0.79782109  0.00511754     0.14500
C2073       C  0.63443773  0.82408602  0.00920539    -0.15100
C2074       C  0.65079396  0.82010680  0.04073570    -0.30300
H2075       H  0.60767685  0.82375191  0.00804992     0.13900
H2076       H  0.67757101  0.81883406  0.04112418     0.14500
C2077       C  0.56850983  0.78440278  0.85388317    -0.15100
C2078       C  0.55797025  0.77119084  0.82216393    -0.30300
H2079       H  0.55146217  0.78533621  0.87661058     0.13900
H2080       H  0.57544744  0.76701225  0.80033710     0.14500
C2081       C  0.64601830  0.93417428  0.87175802    -0.15100
C2082       C  0.62099119  0.94284335  0.84920282    -0.30300
H2083       H  0.66062625  0.95327989  0.88439110     0.13900
H2084       H  0.60517211  0.92391052  0.83813183     0.14500
C2085       C  0.76752336  0.49613421  0.97062058    -0.15100
C2086       C  0.76425873  0.52728557  0.98269097    -0.30300
H2087       H  0.74636210  0.97848944  0.97938058     0.13900
H2088       H  0.78267314  0.54518124  0.97442868     0.14500
C2089       C  0.89925228  0.96268429  0.01192387    -0.15100
C2090       C  0.88371932  0.95977828  0.04413801    -0.30300
H2091       H  0.92442601  0.97176433  0.01061793     0.13900
H2092       H  0.85767936  0.95354460  0.04527994     0.14500
C2093       C  0.77378405  0.89907364  0.83273556    -0.15100
C2094       C  0.76742415  0.86732748  0.83787096    -0.30300
H2095       H  0.75370731  0.91621805  0.82771653     0.13900
H2096       H  0.78802631  0.85123709  0.84467866     0.14500
C2097       C  0.96051340  0.99388721  0.85693052    -0.15100
C2098       C  0.97795080  0.50810524  0.82825371    -0.30300
H2099       H  0.98039313  0.97830431  0.86680352     0.13900
H2100       H  0.96653177  0.49930523  0.80348239     0.14500
C2101       C  0.89864863  0.84298545  0.88509828    -0.15100
C2102       C  0.90611541  0.83037445  0.85208987    -0.30300
H2103       H  0.90255499  0.82836676  0.90951389     0.13900
H2104       H  0.90002550  0.84455497  0.82788304     0.14500
C2105       C  0.90737749  0.64464866  0.73528469    -0.15100
C2106       C  0.87500140  0.63952319  0.72839648    -0.30300
H2107       H  0.92541708  0.62931938  0.72169175     0.13900
H2108       H  0.85706217  0.65502684  0.74191858     0.14500
C2109       C  0.90137037  0.56952459  0.55149832    -0.15100
C2110       C  0.88841169  0.55571893  0.52148856    -0.30300
H2111       H  0.92494481  0.58213725  0.55114278     0.13900
H2112       H  0.86642388  0.54053858  0.52364923     0.14500
C2113       C  0.82524036  0.53128890  0.79822018    -0.15100
C2114       C  0.82356882  0.51526664  0.76645147    -0.30300
H2115       H  0.81637797  0.05012255  0.80442462     0.13900
H2116       H  0.82933697  0.48923627  0.76533150     0.14500
C2117       C  0.64875287  0.63779589  0.71913737    -0.15100
C2118       C  0.61939143  0.63700626  0.73682064    -0.30300
H2119       H  0.66554074  0.61718046  0.72234338     0.13900
H2120       H  0.60263875  0.65765889  0.73365027     0.14500
C2121       C  0.62618342  0.70272209  0.54595070    -0.15100
C2122       C  0.64259014  0.70996206  0.51497565    -0.30300
H2123       H  0.60288446  0.68961858  0.54558030     0.13900
H2124       H  0.66552400  0.72370773  0.51592839     0.14500
C2125       C  0.67689426  0.76436351  0.76345185    -0.15100
C2126       C  0.68649820  0.74913757  0.79427774    -0.30300
H2127       H  0.66547458  0.78853227  0.76440110     0.13900
H2128       H  0.69473278  0.72376871  0.79471617     0.14500
C2129       C  0.77776263  0.64303095  0.58812002    -0.15100
C2130       C  0.74600302  0.64922902  0.58165736    -0.30300
H2131       H  0.79366827  0.66373571  0.59440524     0.13900
H2132       H  0.72902157  0.62916716  0.57661885     0.14500
C2133       C  0.51302174  0.78539011  0.48191402    -0.15100
C2134       C  0.51769446  0.75335047  0.47276322    -0.30300
H2135       H  0.02752972  0.80247723  0.48151743     0.13900
H2136       H  0.50078503  0.73539515  0.48418442     0.14500
C2137       C  0.89436965  0.82238415  0.42423070    -0.15100
C2138       C  0.87904735  0.81686780  0.45599946    -0.30300
H2139       H  0.92006567  0.82992533  0.42338877     0.13900
H2140       H  0.85464817  0.80587208  0.45695916     0.14500
C2141       C  0.95284261  0.75570681  0.66946818    -0.15100
C2142       C  0.95747657  0.77090295  0.70136578    -0.30300
H2143       H  0.95436738  0.72914806  0.66782623     0.13900
H2144       H  0.95541632  0.79739614  0.70333763     0.14500
C2145       C  0.81874350  0.77053994  0.60484655    -0.15100
C2146       C  0.80175953  0.77027369  0.63649658    -0.30300
H2147       H  0.80848781  0.75797449  0.58149645     0.13900
H2148       H  0.81273371  0.78035489  0.66088952     0.14500
C2149       C  0.87209133  0.93372997  0.58406824    -0.15100
C2150       C  0.86931089  0.94712685  0.61752410    -0.30300
H2151       H  0.86656853  0.94838153  0.56005828     0.13900
H2152       H  0.87830685  0.93330290  0.64088437     0.14500
C2153       C  0.50445324  0.50978436  0.46040221    -0.15100
C2154       C  0.51908418  0.51821792  0.49223732    -0.30300
H2155       H  0.01269526  0.48498029  0.45881080     0.13900
H2156       H  0.51230872  0.54157953  0.50410126     0.14500
C2157       C  0.58465465  0.52117373  0.66688740    -0.15100
C2158       C  0.59180503  0.50636579  0.69888737    -0.30300
H2159       H  0.56850851  0.04421400  0.66361103     0.13900
H2160       H  0.60365281  0.48242334  0.69938241     0.14500
C2161       C  0.63111106  0.96101426  0.41475957    -0.15100
C2162       C  0.64636225  0.96450070  0.44688362    -0.30300
H2163       H  0.60502358  0.95500662  0.41336725     0.13900
H2164       H  0.67152020  0.97355544  0.44856063     0.14500
C2165       C  0.99470998  0.89298787  0.63115782    -0.15100
C2166       C  0.52518375  0.88645743  0.61583652    -0.30300
H2167       H  0.99123510  0.91929380  0.63393182     0.13900
H2168       H  0.52595801  0.85984512  0.61797523     0.14500
C2169       C  0.70144502  0.00447712  0.60514198    -0.15100
C2170       C  0.71827692  0.51498908  0.63052403    -0.30300
H2171       H  0.71707713  0.01328759  0.58314781     0.13900
H2172       H  0.70050509  0.51605331  0.65256275     0.12900
C2173       C  0.65244529  0.84784238  0.57814458    -0.15100
C2174       C  0.65196647  0.83445346  0.61179414    -0.30300
H2175       H  0.66011209  0.83326572  0.55505970     0.13900
H2176       H  0.64053681  0.84777542  0.63394120     0.14500
loop_ 
_geom_bond_atom_site_label_1 
_geom_bond_atom_site_label_2 
_geom_bond_distance 
_geom_bond_site_symmetry_2 
_ccdc_geom_bond_type 
Fe1          O17   2.040       .  S
Fe1           O7   2.127       .  S
Fe1          O14   2.135       .  S
Fe1           O6   2.033       .  S
Fe1          O12   1.947       .  S
Fe2           O5   2.010       .  S
Fe2           O9   2.064       .  S
Fe2          O13   2.035       .  S
Fe2          O18   2.080       .  S
Fe2          O12   1.960       .  S
Fe3          O21   2.094       .  S
Fe3          O15   2.102       .  S
Fe3         O552   2.080       .  S
Fe3         O548   2.058   1_545  S
Fe3         O556   1.978   1_545  S
O4         Fe547   2.071       .  S
O4           C11   1.275       .  A
O5          C563   1.264       .  A
O6           C11   1.269       .  A
O7           C10   1.277       .  A
O8         Fe547   2.072       .  S
O8           C20   1.269       .  A
O9           C22   1.263       .  A
C10         O559   1.272       .  A
C10        C1066   1.512       .  S
C11         C530   1.446       .  S
O12        Fe547   1.944       .  S
O13          C16   1.267       .  A
O14          C16   1.283       .  A
O15         C554   1.274   1_545  A
C16         C541   1.485       .  S
O17          C22   1.269       .  A
O18          C20   1.267       .  A
C19          O21   1.275       .  A
C19         O549   1.264   1_545  A
C19         C525   1.473       .  S
C20         C537   1.477       .  S
C22         C534   1.450       .  S
Fe23         O39   2.039       .  S
Fe23         O29   2.102       .  S
Fe23         O36   2.118       .  S
Fe23         O28   2.052       .  S
Fe23         O34   1.960       .  S
Fe24         O27   2.018       .  S
Fe24         O31   2.048       .  S
Fe24         O35   2.035       .  S
Fe24         O40   2.050       .  S
Fe24         O34   1.973       .  S
Fe25         O43   2.103       .  S
Fe25         O30   2.081       .  S
Fe25         O37   2.100       .  S
Fe25         O26   2.076       .  S
Fe25         O34   1.965       .  S
O26          C33   1.277       .  A
O27          C41   1.265       .  A
O28          C33   1.273       .  A
O29          C32   1.273       .  A
O30          C42   1.270       .  A
O31          C44   1.261       .  A
C32          O37   1.274       .  A
C32        C1589   1.512       .  S
C33         C506   1.456       .  S
O35          C38   1.263       .  A
O36          C38   1.277       .  A
C38         C517   1.483       .  S
O39          C44   1.270       .  A
O40          C42   1.263       .  A
C41          O43   1.278       .  A
C41         C509   1.475       .  S
C42         C513   1.475       .  S
C44         C533   1.440       .  S
Fe45         O61   2.095       .  S
Fe45         O51   2.034       .  S
Fe45         O58   2.038       .  S
Fe45         O50   2.109       .  S
Fe45         O56   1.953       .  S
Fe46         O49   2.106       .  S
Fe46         O53   2.102       .  S
Fe46         O57   2.075       .  S
Fe46         O62   2.083       .  S
Fe46         O56   1.954       .  S
Fe47         O65   2.004       .  S
Fe47         O52   2.076       .  S
Fe47         O59   2.068       .  S
Fe47         O48   2.030       .  S
Fe47         O56   1.964       .  S
O48          C55   1.263       .  A
O49          C63   1.279       .  A
O50          C55   1.275       .  A
O51          C54   1.268       .  A
O52          C64   1.266       .  A
O53          C66   1.274       .  A
C54          O59   1.264       .  A
C54         C498   1.449       .  S
C55         C514   1.469       .  S
O57          C60   1.278       .  A
O58          C60   1.269       .  A
C60         C493   1.447       .  S
O61          C66   1.271       .  A
O62          C64   1.271       .  A
C63          O65   1.263       .  A
C63         C489   1.470       .  S
C64         C542   1.484       .  S
C66         C485   1.509       .  S
Fe67         O83   2.095       .  S
Fe67         O73   2.030       .  S
Fe67         O80   2.032       .  S
Fe67         O72   2.108       .  S
Fe67         O78   1.960       .  S
Fe68         O71   2.085       .  S
Fe68         O75   2.106       .  S
Fe68         O79   2.060       .  S
Fe68         O84   2.091   1_545  S
Fe68         O78   1.965       .  S
Fe69         O87   2.015       .  S
Fe69         O74   2.073   1_545  S
Fe69         O81   2.066       .  S
Fe69         O70   2.038       .  S
Fe69         O78   1.975       .  S
O70          C77   1.264       .  A
O71          C85   1.274       .  A
O72          C77   1.275       .  A
O73          C76   1.267       .  A
O74         C630   1.266       .  A
O75          C88   1.275       .  A
C76          O81   1.265       .  A
C76         C497   1.447       .  S
C77         C538   1.477       .  S
O79          C82   1.273       .  A
O80          C82   1.269       .  A
C82         C482   1.439       .  S
O83          C88   1.271       .  A
O84         C630   1.273       .  A
C85          O87   1.265       .  A
C85         C477   1.461       .  S
C86         O618   1.265       .  A
C86         O628   1.273       .  A
C86         C518   1.485       .  S
C88         C474   1.512       .  S
Fe89        O105   2.102       .  S
Fe89         O95   2.041       .  S
Fe89        O102   2.045       .  S
Fe89         O94   2.114       .  S
Fe89        O100   1.974       .  S
Fe90        O101   2.068       .  S
Fe90        O106   2.080       .  S
Fe90        O637   2.099       .  S
Fe90        O641   2.097       .  S
Fe90        O100   1.975       .  S
Fe91        O109   1.988       .  S
Fe91         O96   2.074       .  S
Fe91        O103   2.069       .  S
Fe91         O92   2.034       .  S
Fe91        O100   1.980       .  S
O92          C99   1.259       .  A
O93        Fe634   2.095       .  S
O93         C107   1.275       .  A
O94          C99   1.274       .  A
O95          C98   1.270       .  A
O96         C108   1.269       .  A
O97        Fe634   2.076       .  S
O97         C654   1.269   1_545  A
C98         O103   1.269       .  A
C98         C461   1.452       .  S
C99         C469   1.491       .  S
O101        C104   1.277       .  A
O102        C104   1.271       .  A
C104        C457   1.447   1_556  S
O105        C110   1.272       .  A
O106        C108   1.271       .  A
C107        O653   1.260   1_545  A
C107        C481   1.460       .  S
C108        C465   1.481       .  S
O109        C651   1.258       .  A
C110        O641   1.271       .  A
C110        C997   1.514       .  S
Fe111       O127   2.085       .  S
Fe111       O117   2.077       .  S
Fe111       O124   2.071       .  S
Fe111       O116   2.094       .  S
Fe111       O122   1.932       .  S
Fe112       O115   2.090       .  S
Fe112       O119   2.102       .  S
Fe112       O123   2.056       .  S
Fe112       O128   2.136       .  S
Fe112       O122   1.941       .  S
Fe113       O131   2.028       .  S
Fe113       O118   2.047       .  S
Fe113       O125   2.049       .  S
Fe113       O114   2.048       .  S
Fe113       O122   1.942       .  S
O114        C121   1.262       .  A
O115        C129   1.267       .  A
O116        C121   1.271       .  A
O117        C120   1.280       .  A
O118        C130   1.270       .  A
O119        C132   1.274       .  A
C120        O125   1.268       .  A
C120        C462   1.457       .  S
C121        C449   1.484       .  S
O123        C126   1.276       .  A
O124        C126   1.275       .  A
C126        C441   1.455   1_556  S
O127        C132   1.272       .  A
O128        C130   1.284       .  A
C129        O131   1.256       .  A
C129        C494   1.467       .  S
C130        C445   1.478       .  S
C132        C437   1.501       .  S
Fe133       O149   2.035       .  S
Fe133       O139   2.090       .  S
Fe133       O146   2.121       .  S
Fe133       O138   2.049       .  S
Fe133       O144   1.955       .  S
Fe134       O137   1.982       .  S
Fe134       O141   2.084       .  S
Fe134       O145   2.040       .  S
Fe134       O150   2.078   1_545  S
Fe134       O144   1.961       .  S
Fe135       O153   2.104       .  S
Fe135       O147   2.099       .  S
Fe135       O136   2.080       .  S
Fe135       O684   2.081       .  S
Fe135       O144   1.959       .  S
O136        C143   1.283       .  A
O137        C151   1.259       .  A
O138        C143   1.278       .  A
O139        C142   1.267       .  A
O140       Fe679   2.103       .  S
O140        C152   1.278       .  A
O141        C154   1.273       .  A
C142        O147   1.270       .  A
C142        C486   1.509       .  S
C143        C526   1.451       .  S
O145        C148   1.260       .  A
O146        C148   1.274       .  A
C148       C1554   1.492   1_455  S
O149        C154   1.270       .  A
O150        C696   1.268       .  A
C151        O153   1.278       .  A
C151        C429   1.472       .  S
C152        O694   1.272       .  A
C152        C450   1.471       .  S
C154        C433   1.453       .  S
Fe155       O171   2.036       .  S
Fe155       O161   2.101       .  S
Fe155       O160   2.047       .  S
Fe155      O1256   2.129       .  S
Fe155       O166   1.960       .  S
Fe156       O159   2.002       .  S
Fe156       O163   2.086       .  S
Fe156       O167   2.041       .  S
Fe156       O172   2.088       .  S
Fe156       O166   1.970       .  S
Fe157       O175   2.114       .  S
Fe157       O162   2.075       .  S
Fe157       O169   2.103       .  S
Fe157       O158   2.084       .  S
Fe157       O166   1.961       .  S
O158        C165   1.279       .  A
O159        C173   1.260       .  A
O160        C165   1.273       .  A
O161        C164   1.272       .  A
O162        C174   1.270       .  A
O163        C176   1.271       .  A
C164        O169   1.274       .  A
C164        C473   1.512       .  S
C165        C510   1.457       .  S
O167       C1258   1.262       .  A
O168      Fe1243   2.123   1_455  S
O168        C170   1.275       .  A
C170       O1255   1.258       .  A
C170        C446   1.487       .  S
O171        C176   1.267       .  A
O172        C174   1.270       .  A
C173        O175   1.279       .  A
C173        C425   1.479       .  S
C174        C470   1.483       .  S
C176       C1522   1.458       .  S
Fe177       O193   2.075       .  S
Fe177       O183   2.086       .  S
Fe177       O190   2.104       .  S
Fe177       O182   2.073   1_554  S
Fe177       O188   1.943       .  S
Fe178       O181   2.027       .  S
Fe178       O185   2.052       .  S
Fe178       O189   2.042       .  S
Fe178       O194   2.050       .  S
Fe178       O188   1.949       .  S
Fe179       O197   2.098       .  S
Fe179       O184   2.133       .  S
Fe179       O191   2.100       .  S
Fe179       O180   2.062   1_554  S
Fe179       O188   1.942       .  S
O180        C187   1.278       .  A
O181        C195   1.256       .  A
O182        C187   1.274       .  A
O183        C186   1.272       .  A
O184        C196   1.285       .  A
O185        C198   1.270       .  A
C186        O191   1.274       .  A
C186        C438   1.501   1_554  S
C187        C426   1.460       .  S
O189        C192   1.260       .  A
O190        C192   1.272       .  A
C192        C422   1.489       .  S
O193        C198   1.280       .  A
O194        C196   1.271       .  A
C195        O197   1.269       .  A
C195        C409   1.476       .  S
C196        C417   1.478       .  S
C198        C413   1.458       .  S
Fe199       O215   2.128       .  S
Fe199       O205   2.037       .  S
Fe199       O212   2.036       .  S
Fe199       O204   2.141       .  S
Fe199       O210   1.947       .  S
Fe200       O203   2.107       .  S
Fe200       O207   2.081       .  S
Fe200       O211   2.088       .  S
Fe200       O216   2.071       .  S
Fe200       O210   1.940       .  S
Fe201       O219   2.014       .  S
Fe201       O206   2.105       .  S
Fe201       O213   2.081       .  S
Fe201       O202   2.038       .  S
Fe201       O210   1.958       .  S
O202        C209   1.268       .  A
O203        C217   1.277       .  A
O204        C209   1.285       .  A
O205        C208   1.266       .  A
O206        C218   1.272       .  A
O207        C220   1.272       .  A
C208        O213   1.267       .  A
C208        C402   1.454       .  S
C209       C1506   1.492   1_455  S
O211        C214   1.278       .  A
O212        C214   1.269       .  A
C214        C397   1.457       .  S
O215        C220   1.278       .  A
O216        C218   1.270       .  A
C217        O219   1.263       .  A
C217        C442   1.468       .  S
C218        C406   1.486       .  S
C220        C394   1.509       .  S
Fe221       O237   2.032       .  S
Fe221       O227   2.126       .  S
Fe221       O234   2.146       .  S
Fe221       O226   2.024   1_554  S
Fe221       O232   1.950       .  S
Fe222       O225   2.000       .  S
Fe222       O229   2.083       .  S
Fe222       O233   2.033       .  S
Fe222       O238   2.104       .  S
Fe222       O232   1.954       .  S
Fe223       O241   2.097       .  S
Fe223       O228   2.085       .  S
Fe223       O235   2.088       .  S
Fe223       O224   2.073       .  S
Fe223       O232   1.940       .  S
O224        C231   1.277   1_554  A
O225        C239   1.261       .  A
O226        C231   1.267       .  A
O227        C230   1.278       .  A
O228        C240   1.272       .  A
O229        C242   1.268       .  A
C230        O235   1.272       .  A
C230        C454   1.513   1_554  S
C231        C430   1.440       .  S
O233        C236   1.266       .  A
O234        C236   1.286       .  A
C236        C405   1.493       .  S
O237        C242   1.262       .  A
O238        C240   1.271       .  A
C239        O241   1.276       .  A
C239        C385   1.458       .  S
C240        C389   1.495       .  S
C242        C414   1.453       .  S
Fe243       O259   2.114       .  S
Fe243       O249   2.037       .  S
Fe243       O256   2.041       .  S
Fe243      O1336   2.120       .  S
Fe243       O254   1.964       .  S
Fe244       O247   2.085       .  S
Fe244       O251   2.094       .  S
Fe244       O799   2.059       .  S
Fe244       O804   2.073       .  S
Fe244       O254   1.975       .  S
Fe245       O263   2.016       .  S
Fe245       O257   2.067       .  S
Fe245       O794   2.073       .  S
Fe245      O1334   2.045       .  S
Fe245       O254   1.982       .  S
O246      Fe1333   2.037   1_455  S
O246        C797   1.266       .  A
O247        C261   1.274       .  A
O248      Fe1331   2.156   1_455  S
O248        C797   1.287       .  A
O249        C252   1.270       .  A
O250       Fe789   2.079   1_545  S
O250        C262   1.267       .  A
O251        C264   1.270       .  A
C252        O257   1.267       .  A
C252       C1489   1.449       .  S
C253        O790   1.266   1_455  A
C253        O792   1.285   1_545  A
C253        C390   1.498       .  S
O255       Fe788   2.071       .  S
O255        C258   1.276   1_565  A
O256        C802   1.271       .  A
C258        O800   1.272   1_545  A
C258        C381   1.451       .  S
O259        C264   1.275       .  A
O260       Fe788   2.069   1_545  S
O260        C262   1.269       .  A
C261        O263   1.265       .  A
C261        C458   1.471       .  S
C262        C421   1.479       .  S
C264        C377   1.518       .  S
Fe265       O281   2.100       .  S
Fe265       O271   2.036       .  S
Fe265       O278   2.039       .  S
Fe265       O270   2.116       .  S
Fe265       O276   1.956       .  S
Fe266       O269   2.096       .  S
Fe266       O273   2.104       .  S
Fe266       O277   2.070       .  S
Fe266       O282   2.080       .  S
Fe266       O276   1.962       .  S
Fe267       O285   2.013       .  S
Fe267       O272   2.081       .  S
Fe267       O279   2.075       .  S
Fe267       O268   2.038       .  S
Fe267       O276   1.970       .  S
O268        C275   1.263       .  A
O269        C283   1.277       .  A
O270        C275   1.276       .  A
O271        C274   1.269       .  A
O272        C284   1.268       .  A
O273        C286   1.274       .  A
C274        O279   1.268       .  A
C274        C365   1.450       .  S
C275        C369   1.482       .  S
O277        C280   1.276       .  A
O278        C280   1.271       .  A
C280        C478   1.448       .  S
O281        C286   1.272       .  A
O282        C284   1.270       .  A
C283        O285   1.265       .  A
C283        C382   1.467       .  S
C284        C374   1.485       .  S
C286       C1609   1.513       .  S
Fe287       O303   2.096       .  S
Fe287       O293   2.038       .  S
Fe287       O300   2.040       .  S
Fe287       O292   2.121       .  S
Fe287       O298   1.950       .  S
Fe288       O291   2.108       .  S
Fe288       O295   2.113       .  S
Fe288       O299   2.072       .  S
Fe288       O304   2.086       .  S
Fe288       O298   1.956       .  S
Fe289       O307   2.016       .  S
Fe289       O294   2.076       .  S
Fe289       O301   2.066       .  S
Fe289       O290   2.039       .  S
Fe289       O298   1.966       .  S
O290        C297   1.266       .  A
O291        C305   1.280       .  A
O292        C297   1.279       .  A
O293        C296   1.266       .  A
O294        C306   1.266       .  A
O295        C308   1.278       .  A
C296        O301   1.263       .  A
C296        C366   1.449       .  S
C297        C361   1.484       .  S
O299        C302   1.275       .  A
O300        C302   1.269       .  A
C302        C490   1.449       .  S
O303        C308   1.273       .  A
O304        C306   1.272       .  A
C305        O307   1.264       .  A
C305        C398   1.468       .  S
C306        C357   1.484       .  S
C308        C502   1.513       .  S
Fe309       O325   2.039       .  S
Fe309       O315   2.107       .  S
Fe309       O322   2.127       .  S
Fe309       O314   2.048       .  S
Fe309       O320   1.955       .  S
Fe310       O313   2.016       .  S
Fe310       O317   2.066       .  S
Fe310       O321   2.035       .  S
Fe310       O326   2.071       .  S
Fe310       O320   1.971       .  S
Fe311       O329   2.108       .  S
Fe311       O316   2.085       .  S
Fe311       O323   2.108       .  S
Fe311       O312   2.076       .  S
Fe311       O320   1.958       .  S
O312        C319   1.278       .  A
O313        C327   1.265       .  A
O314        C319   1.271       .  A
O315        C318   1.275       .  A
O316        C328   1.271       .  A
O317        C330   1.264       .  A
C318        O323   1.275       .  A
C318        C378   1.517       .  S
C319        C410   1.454       .  S
O321        C324   1.264       .  A
O322        C324   1.279       .  A
C324        C358   1.484       .  S
O325        C330   1.268       .  A
O326        C328   1.265       .  A
C327        O329   1.280       .  A
C327        C505   1.474       .  S
C328        C370   1.483       .  S
C330        C353   1.448       .  S
Fe331       O347   2.036       .  S
Fe331       O337   2.120       .  S
Fe331       O344   2.139       .  S
Fe331       O336   2.027       .  S
Fe331       O342   1.942       .  S
Fe332       O335   2.011       .  S
Fe332       O339   2.069       .  S
Fe332       O887   2.031       .  S
Fe332       O892   2.081       .  S
Fe332       O342   1.955       .  S
Fe333       O351   2.099       .  S
Fe333       O345   2.088       .  S
Fe333       O882   2.082       .  S
Fe333       O878   2.081       .  S
Fe333       O342   1.942       .  S
O334       Fe877   2.065   1_545  S
O334        C341   1.272       .  A
O335        C349   1.264       .  A
O336        C885   1.269       .  A
O337        C340   1.277       .  A
O338       Fe877   2.073   1_545  S
O338        C350   1.270       .  A
O339        C352   1.264       .  A
C340        O345   1.273       .  A
C340        C393   1.510       .  S
C341        O880   1.268   1_545  A
C341        C386   1.441       .  S
O343       Fe876   2.038   1_545  S
O343        C346   1.266       .  A
O344        C890   1.284       .  A
C346        O888   1.282   1_545  A
C346        C373   1.487       .  S
O347        C352   1.266       .  A
O348       Fe876   2.087   1_545  S
O348        C350   1.269       .  A
C349        O351   1.277       .  A
C349        C529   1.461       .  S
C350        C362   1.481       .  S
C352        C354   1.449       .  S
C353        C354   1.329       .  D
C353        H355   1.087       .  S
C354        H356   1.087       .  S
C357        C358   1.355       .  D
C357        H359   1.087       .  S
C358        H360   1.086       .  S
C361        C362   1.352       .  D
C361        H363   1.086       .  S
C362        H364   1.087       .  S
C365       C1454   1.331       .  D
C365        H367   1.087       .  S
C366       C1453   1.330   1_455  D
C366        H368   1.087       .  S
C369        C370   1.354       .  D
C369        H371   1.086       .  S
C370        H372   1.087       .  S
C373        C374   1.354       .  D
C373        H375   1.086       .  S
C374        H376   1.087       .  S
C377        C378   1.364       .  D
C377        H379   1.086       .  S
C378        H380   1.086       .  S
C381        C382   1.347       .  D
C381        H383   1.088       .  S
C382        H384   1.086   1_545  S
C385        C386   1.344       .  D
C385        H387   1.087   1_545  S
C386        H932   1.088       .  S
H388        C930   1.089       .  S
C389        C390   1.360       .  D
C389        H391   1.087       .  S
C390        H392   1.086       .  S
C393        C394   1.359       .  D
C393        H395   1.086       .  S
C394        H396   1.086       .  S
C397        C398   1.350       .  D
C397        H399   1.088       .  S
C398        H400   1.087       .  S
C401       C1340   1.454       .  S
C401        C402   1.333       .  D
C401        H403   1.087       .  S
C402        H404   1.087   1_455  S
C405        C406   1.356       .  D
C405        H407   1.086       .  S
C406        H408   1.087       .  S
C409        C410   1.352       .  D
C409        H411   1.086       .  S
C410        H412   1.087       .  S
C413        C414   1.332       .  D
C413        H415   1.087       .  S
C414        H416   1.089       .  S
C417        C418   1.352       .  D
C417        H419   1.086       .  S
C418       C1297   1.487       .  S
C418        H420   1.087       .  S
C421        C422   1.356       .  D
C421        H423   1.087       .  S
C422        H424   1.086       .  S
C425        C426   1.356       .  D
C425        H427   1.086       .  S
C426        H428   1.087       .  S
C429        C430   1.354       .  D
C429        H431   1.086       .  S
C430        H432   1.086       .  S
C433        C434   1.329   1_455  D
C433        H435   1.088       .  S
C434       C1264   1.454       .  S
C434       H1524   1.089       .  S
H436       C1522   1.089       .  S
C437        C438   1.356       .  D
C437        H439   1.087       .  S
C438        H440   1.086       .  S
C441        C442   1.348       .  D
C441        H443   1.088       .  S
C442        H444   1.087       .  S
C445        C446   1.352       .  D
C445        H447   1.086       .  S
C446        H448   1.087       .  S
C449        C450   1.351       .  D
C449        H451   1.086       .  S
C450        H452   1.087       .  S
C453        C654   1.512   1_545  S
C453        C454   1.358       .  D
C453        H999   1.086       .  S
C454        H456   1.086   1_546  S
H455        C997   1.086       .  S
C457        C458   1.346       .  D
C457        H459   1.086       .  S
C458        H460   1.087       .  S
C461        C462   1.331       .  D
C461        H463   1.089       .  S
C462        H464   1.087       .  S
C465       C1010   1.356       .  D
C465        H467   1.087       .  S
C466       C1236   1.493       .  S
C466       C1009   1.356       .  D
C466        H468   1.086       .  S
C469        C470   1.355       .  D
C469        H471   1.086       .  S
C470        H472   1.087       .  S
C473        C474   1.358       .  D
C473        H475   1.086       .  S
C474        H476   1.086       .  S
C477        C478   1.344       .  D
C477        H479   1.087       .  S
C478        H480   1.089       .  S
C481        C482   1.345       .  D
C481       H1027   1.087       .  S
C482        H484   1.088   1_545  S
H483       C1025   1.086       .  S
C485        C486   1.357       .  D
C485        H487   1.086       .  S
C486        H488   1.086       .  S
C489        C490   1.349       .  D
C489        H491   1.086       .  S
C490        H492   1.088       .  S
C493        C494   1.348       .  D
C493        H495   1.087       .  S
C494        H496   1.086       .  S
C497        C498   1.332       .  D
C497        H499   1.088       .  S
C498        H500   1.088       .  S
C501       C1120   1.515   1_455  S
C501        C502   1.360       .  D
C501       H1591   1.086       .  S
C502        H504   1.086       .  S
H503       C1589   1.086       .  S
C505        C506   1.350       .  D
C505        H507   1.086       .  S
C506        H508   1.087       .  S
C509        C510   1.350       .  D
C509        H511   1.086       .  S
C510        H512   1.087       .  S
C513        C514   1.350       .  D
C513        H515   1.088       .  S
C514        H516   1.086       .  S
C517        C518   1.357       .  D
C517        H519   1.086       .  S
C518        H520   1.087       .  S
C521       C1374   1.510   1_455  S
C521        C522   1.358   1_545  D
C521       H1611   1.086       .  S
C522        C554   1.512       .  S
C522        H524   1.086   1_455  S
H523       C1609   1.086       .  S
C525        C526   1.349       .  D
C525       H1071   1.087       .  S
C526        H528   1.088   1_545  S
H527       C1069   1.086       .  S
C529        C530   1.344       .  D
C529        H531   1.087       .  S
C530        H532   1.088       .  S
C533       C1622   1.327       .  D
C533        H535   1.088       .  S
C534       C1621   1.328   1_455  D
C534        H536   1.087       .  S
C537       C1082   1.353       .  D
C537        H539   1.088       .  S
C538       C1081   1.350       .  D
C538        H540   1.086   1_545  S
C541        C542   1.355       .  D
C541        H543   1.086       .  S
C542        H544   1.087       .  S
Fe545       O561   2.048       .  S
Fe545       O551   2.097       .  S
Fe545       O558   2.106       .  S
Fe545       O550   2.052       .  S
Fe545       O556   1.970       .  S
Fe546       O549   2.013       .  S
Fe546       O553   2.053       .  S
Fe546       O557   2.032       .  S
Fe546       O562   2.059       .  S
Fe546       O556   1.980       .  S
Fe547       O565   2.091       .  S
Fe547       O559   2.084       .  S
O548        C555   1.272       .  A
O550        C555   1.271       .  A
O551        C554   1.272       .  A
O552        C564   1.269   1_545  A
O553        C566   1.263       .  A
C555       C1074   1.450       .  S
O557        C560   1.262       .  A
O558        C560   1.274       .  A
C560       C1085   1.481       .  S
O561        C566   1.271       .  A
O562        C564   1.263       .  A
C563        O565   1.275       .  A
C563       C1069   1.459       .  S
C564       C1081   1.478   1_565  S
C566       C1078   1.448       .  S
Fe567       O583   2.034       .  S
Fe567       O573   2.113       .  S
Fe567       O580   2.128       .  S
Fe567       O572   2.042       .  S
Fe567       O578   1.958       .  S
Fe568       O571   2.012       .  S
Fe568       O575   2.048       .  S
Fe568       O579   2.035       .  S
Fe568       O584   2.050       .  S
Fe568       O578   1.973       .  S
Fe569       O587   2.100       .  S
Fe569       O574   2.086       .  S
Fe569       O581   2.110       .  S
Fe569       O570   2.066       .  S
Fe569       O578   1.966       .  S
O570        C577   1.276       .  A
O571        C585   1.265       .  A
O572        C577   1.272       .  A
O573        C576   1.275       .  A
O574        C586   1.271       .  A
O575        C588   1.261       .  A
C576        O581   1.275       .  A
C576       C2133   1.523       .  S
C577       C1050   1.446       .  S
O579        C582   1.262       .  A
O580        C582   1.278       .  A
C582       C1061   1.487       .  S
O583        C588   1.270       .  A
O584        C586   1.262       .  A
C585        O587   1.278       .  A
C585       C1053   1.470       .  S
C586       C1057   1.477       .  S
C588       C1077   1.438       .  S
Fe589       O605   2.092       .  S
Fe589       O595   2.040       .  S
Fe589       O602   2.050       .  S
Fe589       O594   2.113       .  S
Fe589       O600   1.951       .  S
Fe590       O593   2.106       .  S
Fe590       O597   2.090       .  S
Fe590       O601   2.072       .  S
Fe590       O606   2.072       .  S
Fe590       O600   1.954       .  S
Fe591       O609   2.008       .  S
Fe591       O596   2.072       .  S
Fe591       O603   2.061       .  S
Fe591       O592   2.032       .  S
Fe591       O600   1.965       .  S
O592        C599   1.264       .  A
O593        C607   1.279       .  A
O594        C599   1.277       .  A
O595        C598   1.268       .  A
O596        C608   1.265       .  A
O597        C610   1.272       .  A
C598        O603   1.262       .  A
C598       C1042   1.447       .  S
C599       C1058   1.472       .  S
O601        C604   1.276       .  A
O602        C604   1.271       .  A
C604       C1037   1.453       .  S
O605        C610   1.272       .  A
O606        C608   1.268       .  A
C607        O609   1.264       .  A
C607       C1033   1.469       .  S
C608       C1086   1.477       .  S
C610       C1029   1.500       .  S
Fe611       O627   2.122       .  S
Fe611       O617   2.036       .  S
Fe611       O624   2.034       .  S
Fe611       O616   2.135       .  S
Fe611       O622   1.946       .  S
Fe612       O615   2.098       .  S
Fe612       O619   2.086       .  S
Fe612       O623   2.079       .  S
Fe612       O628   2.090       .  S
Fe612       O622   1.934       .  S
Fe613       O631   2.012       .  S
Fe613       O618   2.073       .  S
Fe613       O625   2.066       .  S
Fe613       O614   2.027       .  S
Fe613       O622   1.955       .  S
O614        C621   1.265       .  A
O615        C629   1.277       .  A
O616        C621   1.283       .  A
O617        C620   1.267       .  A
O619        C632   1.273       .  A
C620        O625   1.262       .  A
C620       C1041   1.449       .  S
C621       C1082   1.480       .  S
O623        C626   1.278       .  A
O624        C626   1.269       .  A
C626       C1026   1.453       .  S
O627        C632   1.278       .  A
C629        O631   1.264       .  A
C629       C1021   1.458       .  S
C630       C1062   1.487       .  S
C632       C1018   1.510       .  S
Fe633       O649   2.135       .  S
Fe633       O639   2.035       .  S
Fe633       O646   2.034       .  S
Fe633       O638   2.146       .  S
Fe633       O644   1.950       .  S
Fe634       O645   2.078   1_545  S
Fe634       O650   2.063       .  S
Fe634       O644   1.940   1_545  S
Fe635       O653   1.996       .  S
Fe635       O640   2.097       .  S
Fe635       O647   2.084       .  S
Fe635       O636   2.035       .  S
Fe635       O644   1.956       .  S
O636        C643   1.264       .  A
O637        C651   1.274       .  A
O638        C643   1.284       .  A
O639        C642   1.266       .  A
O640        C652   1.271       .  A
C642        O647   1.270       .  A
C642       C1005   1.454       .  S
C643       C1013   1.497       .  S
O645        C648   1.278       .  A
O646        C648   1.271       .  A
C648       C1001   1.449   1_556  S
O649        C654   1.278       .  A
O650        C652   1.269   1_545  A
C651       C1025   1.469       .  S
C652       C1009   1.481   1_565  S
Fe655       O671   2.094       .  S
Fe655       O661   2.074       .  S
Fe655       O668   2.071       .  S
Fe655       O660   2.109       .  S
Fe655       O666   1.933       .  S
Fe656       O659   2.094       .  S
Fe656       O663   2.110       .  S
Fe656       O667   2.058       .  S
Fe656       O672   2.131       .  S
Fe656       O666   1.941       .  S
Fe657       O675   2.032       .  S
Fe657       O662   2.052       .  S
Fe657       O669   2.053       .  S
Fe657       O658   2.054       .  S
Fe657       O666   1.947       .  S
O658        C665   1.262       .  A
O659        C673   1.268       .  A
O660        C665   1.274       .  A
O661        C664   1.280       .  A
O662        C674   1.272       .  A
O663        C676   1.276       .  A
C664        O669   1.270       .  A
C664       C1006   1.460       .  S
C665        C993   1.495       .  S
O667        C670   1.275       .  A
O668        C670   1.274       .  A
C670        C985   1.456   1_556  S
O671        C676   1.275       .  A
O672        C674   1.285       .  A
C673        O675   1.257       .  A
C673       C1038   1.475       .  S
C674        C989   1.479       .  S
C676        C981   1.509       .  S
Fe677       O693   2.068       .  S
Fe677       O683   2.093       .  S
Fe677       O690   2.095       .  S
Fe677       O682   2.059       .  S
Fe677       O688   1.944       .  S
Fe678       O681   2.028       .  S
Fe678       O685   2.057       .  S
Fe678       O689   2.059       .  S
Fe678       O694   2.055       .  S
Fe678       O688   1.959       .  S
Fe679       O697   2.087       .  S
Fe679       O691   2.089       .  S
Fe679       O680   2.048       .  S
Fe679       O688   1.947       .  S
O680        C687   1.274       .  A
O681        C695   1.258       .  A
O682        C687   1.273       .  A
O683        C686   1.273       .  A
O684        C696   1.270   1_545  A
O685        C698   1.270       .  A
C686        O691   1.270       .  A
C686       C1030   1.503       .  S
C687       C1070   1.447       .  S
O689        C692   1.264       .  A
O690        C692   1.271       .  A
C692       C2098   1.489   1_455  S
O693        C698   1.278       .  A
C695        O697   1.268       .  A
C695        C973   1.467       .  S
C696        C994   1.486       .  S
C698        C977   1.460       .  S
Fe699       O715   2.029       .  S
Fe699       O705   2.128       .  S
Fe699      O1800   2.147       .  S
Fe699       O704   2.032       .  S
Fe699       O710   1.947       .  S
Fe700       O703   2.003       .  S
Fe700       O707   2.091       .  S
Fe700       O711   2.038       .  S
Fe700       O716   2.112       .  S
Fe700       O710   1.952       .  S
Fe701       O719   2.109       .  S
Fe701       O706   2.069       .  S
Fe701       O713   2.085       .  S
Fe701       O702   2.085       .  S
Fe701       O710   1.940       .  S
O702        C709   1.278       .  A
O703        C717   1.258       .  A
O704        C709   1.269       .  A
O705        C708   1.278       .  A
O706        C718   1.270       .  A
O707        C720   1.271       .  A
C708        O713   1.273       .  A
C708       C1017   1.510       .  S
C709       C1054   1.453       .  S
O711       C1802   1.266       .  A
O712      Fe1787   2.116   1_455  S
O712        C714   1.277       .  A
C714       O1799   1.266       .  A
C714        C990   1.484       .  S
O715        C720   1.262       .  A
O716        C718   1.275       .  A
C717        O719   1.276       .  A
C717        C969   1.466       .  S
C718       C1014   1.487       .  S
C720       C2066   1.457       .  S
Fe721       O737   2.071       .  S
Fe721       O727   2.087       .  S
Fe721       O734   2.098       .  S
Fe721       O726   2.063   1_554  S
Fe721       O732   1.935       .  S
Fe722       O725   2.027       .  S
Fe722       O729   2.059       .  S
Fe722       O733   2.056       .  S
Fe722       O738   2.054       .  S
Fe722       O732   1.948       .  S
Fe723       O741   2.089       .  S
Fe723       O728   2.148       .  S
Fe723       O735   2.120       .  S
Fe723       O724   2.056       .  S
Fe723       O732   1.943       .  S
O724        C731   1.275   1_554  A
O725        C739   1.257       .  A
O726        C731   1.273       .  A
O727        C730   1.273       .  A
O728        C740   1.288       .  A
O729        C742   1.270       .  A
C730        O735   1.278       .  A
C730        C982   1.509   1_554  S
C731        C970   1.452       .  S
O733        C736   1.264       .  A
O734        C736   1.272       .  A
C736        C966   1.488       .  S
O737        C742   1.278       .  A
O738        C740   1.272       .  A
C739        O741   1.267       .  A
C739        C953   1.468       .  S
C740        C961   1.487       .  S
C742        C957   1.462       .  S
Fe743       O759   2.137       .  S
Fe743       O749   2.042       .  S
Fe743       O756   2.038       .  S
Fe743       O748   2.149       .  S
Fe743       O754   1.943       .  S
Fe744       O747   2.109       .  S
Fe744       O751   2.075       .  S
Fe744       O755   2.083       .  S
Fe744       O760   2.062       .  S
Fe744       O754   1.938       .  S
Fe745       O763   2.014       .  S
Fe745       O750   2.092       .  S
Fe745       O757   2.073       .  S
Fe745       O746   2.034       .  S
Fe745       O754   1.953       .  S
O746        C753   1.267       .  A
O747        C761   1.278       .  A
O748        C753   1.287       .  A
O749        C752   1.268       .  A
O750        C762   1.270       .  A
O751        C764   1.271       .  A
C752        O757   1.266       .  A
C752        C946   1.452       .  S
C753       C2050   1.493   1_455  S
O755        C758   1.277       .  A
O756        C758   1.269       .  A
C758        C941   1.455       .  S
O759        C764   1.281       .  A
O760        C762   1.267       .  A
C761        O763   1.263       .  A
C761        C986   1.471       .  S
C762        C950   1.476       .  S
C764        C938   1.509       .  S
Fe765       O781   2.035       .  S
Fe765       O771   2.095       .  S
Fe765       O778   2.121       .  S
Fe765       O770   2.035   1_554  S
Fe765       O776   1.945       .  S
Fe766       O769   2.002       .  S
Fe766       O773   2.082       .  S
Fe766       O777   2.036       .  S
Fe766       O782   2.104       .  S
Fe766       O776   1.959       .  S
Fe767       O785   2.108       .  S
Fe767       O772   2.088       .  S
Fe767       O779   2.114       .  S
Fe767       O768   2.079   1_554  S
Fe767       O776   1.950       .  S
O768        C775   1.278       .  A
O769        C783   1.260       .  A
O770        C775   1.267       .  A
O771        C774   1.274       .  A
O772        C784   1.274       .  A
O773        C786   1.267       .  A
C774        O779   1.278       .  A
C774        C998   1.511   1_554  S
C775        C974   1.449       .  S
O777        C780   1.267       .  A
O778        C780   1.281       .  A
C780        C949   1.482       .  S
O781        C786   1.262       .  A
O782        C784   1.271       .  A
C783        O785   1.278       .  A
C783        C929   1.457       .  S
C784        C933   1.496       .  S
C786        C958   1.456       .  S
Fe787       O803   2.110       .  S
Fe787       O793   2.037       .  S
Fe787       O800   2.044       .  S
Fe787      O1880   2.128       .  S
Fe787       O798   1.954       .  S
Fe788       O791   2.094       .  S
Fe788       O795   2.094       .  S
Fe788       O798   1.962       .  S
Fe789       O807   2.013       .  S
Fe789       O801   2.065       .  S
Fe789      O1878   2.043   1_565  S
Fe789       O798   1.971       .  S
O790      Fe1877   2.041       .  S
O791        C805   1.276       .  A
O792      Fe1875   2.149   1_455  S
O793        C796   1.269       .  A
O794        C806   1.267       .  A
O795        C808   1.272       .  A
C796        O801   1.265       .  A
C796       C2033   1.446       .  S
C797        C934   1.500       .  S
O799        C802   1.274       .  A
C802        C925   1.442       .  S
O803        C808   1.274       .  A
O804        C806   1.268       .  A
C805        O807   1.265       .  A
C805       C1002   1.465       .  S
C806        C965   1.480       .  S
C808        C921   1.513       .  S
Fe809       O825   2.138       .  S
Fe809       O815   2.045       .  S
Fe809       O822   2.033       .  S
Fe809       O814   2.144       .  S
Fe809       O820   1.950       .  S
Fe810       O813   2.091       .  S
Fe810       O817   2.084       .  S
Fe810       O821   2.075       .  S
Fe810       O826   2.075       .  S
Fe810       O820   1.947       .  S
Fe811       O829   2.009       .  S
Fe811       O816   2.087       .  S
Fe811       O823   2.069       .  S
Fe811       O812   2.036       .  S
Fe811       O820   1.963       .  S
O812        C819   1.267       .  A
O813        C827   1.275       .  A
O814        C819   1.285       .  A
O815        C818   1.268       .  A
O816        C828   1.268       .  A
O817        C830   1.271       .  A
C818        O823   1.265       .  A
C818        C909   1.451       .  S
C819        C913   1.490       .  S
O821        C824   1.276       .  A
O822        C824   1.269       .  A
C824       C1022   1.449       .  S
O825        C830   1.280       .  A
O826        C828   1.269       .  A
C827        O829   1.265       .  A
C827        C926   1.461       .  S
C828        C918   1.483       .  S
C830       C2153   1.518       .  S
Fe831       O847   2.102       .  S
Fe831       O837   2.037       .  S
Fe831       O844   2.042       .  S
Fe831       O836   2.122       .  S
Fe831       O842   1.952       .  S
Fe832       O835   2.103       .  S
Fe832       O839   2.113       .  S
Fe832       O843   2.070       .  S
Fe832       O848   2.087       .  S
Fe832       O842   1.960       .  S
Fe833       O851   2.017       .  S
Fe833       O838   2.061       .  S
Fe833       O845   2.056       .  S
Fe833       O834   2.037       .  S
Fe833       O842   1.969       .  S
O834        C841   1.265       .  A
O835        C849   1.280       .  A
O836        C841   1.279       .  A
O837        C840   1.267       .  A
O838        C850   1.263       .  A
O839        C852   1.276       .  A
C840        O845   1.261       .  A
C840        C910   1.442       .  S
C841        C905   1.482       .  S
O843        C846   1.276       .  A
O844        C846   1.270       .  A
C846       C1034   1.449       .  S
O847        C852   1.274       .  A
O848        C850   1.271       .  A
C849        O851   1.266       .  A
C849        C942   1.466       .  S
C850        C901   1.482       .  S
C852       C1046   1.517       .  S
Fe853       O869   2.042       .  S
Fe853       O859   2.098       .  S
Fe853       O866   2.117       .  S
Fe853       O858   2.042       .  S
Fe853       O864   1.956       .  S
Fe854       O857   2.005       .  S
Fe854       O861   2.070       .  S
Fe854       O865   2.034       .  S
Fe854       O870   2.077       .  S
Fe854       O864   1.969       .  S
Fe855       O873   2.101       .  S
Fe855       O860   2.090       .  S
Fe855       O867   2.105       .  S
Fe855       O856   2.072       .  S
Fe855       O864   1.959       .  S
O856        C863   1.278       .  A
O857        C871   1.265       .  A
O858        C863   1.271       .  A
O859        C862   1.272       .  A
O860        C872   1.271       .  A
O861        C874   1.265       .  A
C862        O867   1.273       .  A
C862        C922   1.513       .  S
C863        C954   1.447       .  S
O865        C868   1.264       .  A
O866        C868   1.277       .  A
C868        C902   1.476       .  S
O869        C874   1.268       .  A
O870        C872   1.265       .  A
C871        O873   1.279       .  A
C871       C1049   1.467       .  S
C872        C914   1.490       .  S
C874        C897   1.450       .  S
Fe875       O891   2.036       .  S
Fe875       O881   2.127       .  S
Fe875       O888   2.133       .  S
Fe875       O880   2.029       .  S
Fe875       O886   1.952       .  S
Fe876       O879   2.024       .  S
Fe876       O883   2.074       .  S
Fe876       O886   1.965       .  S
Fe877       O895   2.084       .  S
Fe877       O889   2.078       .  S
Fe877       O886   1.946       .  S
O878        C885   1.276       .  A
O879        C893   1.266       .  A
O881        C884   1.278       .  A
O882        C894   1.272       .  A
O883        C896   1.267       .  A
C884        O889   1.270       .  A
C884        C937   1.509       .  S
C885        C930   1.450       .  S
O887        C890   1.266       .  A
C890        C917   1.486       .  S
O891        C896   1.268       .  A
O892        C894   1.268       .  A
C893        O895   1.273       .  A
C893       C1073   1.464       .  S
C894        C906   1.483       .  S
C896        C898   1.452       .  S
C897        C898   1.330       .  D
C897        H899   1.088       .  S
C898        H900   1.087       .  S
C901        C902   1.353       .  D
C901        H903   1.087       .  S
C902        H904   1.086       .  S
C905        C906   1.354       .  D
C905        H907   1.086       .  S
C906        H908   1.087       .  S
C909       C1998   1.329       .  D
C909        H911   1.088       .  S
C910       C1997   1.326       .  D
C910        H912   1.088       .  S
C913        C914   1.357       .  D
C913        H915   1.086       .  S
C914        H916   1.087       .  S
C917        C918   1.355       .  D
C917        H919   1.086       .  S
C918        H920   1.087       .  S
C921        C922   1.361       .  D
C921        H923   1.086       .  S
C922        H924   1.086       .  S
C925        C926   1.343       .  D
C925        H927   1.087       .  S
C926        H928   1.087       .  S
C929        C930   1.348       .  D
C929        H931   1.086       .  S
C933        C934   1.362       .  D
C933        H935   1.087       .  S
C934        H936   1.086       .  S
C937        C938   1.357       .  D
C937        H939   1.086       .  S
C938        H940   1.086       .  S
C941        C942   1.348       .  D
C941        H943   1.089       .  S
C942        H944   1.086       .  S
C945       C1884   1.450   1_455  S
C945        C946   1.330       .  D
C945        H947   1.087       .  S
C946        H948   1.087   1_455  S
C949        C950   1.349       .  D
C949        H951   1.086       .  S
C950        H952   1.087       .  S
C953        C954   1.348       .  D
C953        H955   1.086       .  S
C954        H956   1.087       .  S
C957        C958   1.334       .  D
C957        H959   1.087       .  S
C958        H960   1.089       .  S
C961        C962   1.357       .  D
C961        H963   1.086       .  S
C962       C1841   1.496       .  S
C962        H964   1.087       .  S
C965        C966   1.353       .  D
C965        H967   1.087       .  S
C966        H968   1.086       .  S
C969        C970   1.350       .  D
C969        H971   1.087       .  S
C970        H972   1.088       .  S
C973        C974   1.349       .  D
C973        H975   1.086       .  S
C974        H976   1.087       .  S
C977        C978   1.332       .  D
C977        H979   1.087       .  S
C978       C1808   1.454   1_455  S
C978       H2068   1.089   1_455  S
H980       C2066   1.089       .  S
C981        C982   1.359       .  D
C981        H983   1.086       .  S
C982        H984   1.086       .  S
C985        C986   1.349       .  D
C985        H987   1.088       .  S
C986        H988   1.087       .  S
C989        C990   1.348       .  D
C989        H991   1.086       .  S
C990        H992   1.087       .  S
C993        C994   1.358       .  D
C993        H995   1.086       .  S
C994        H996   1.087       .  S
C997        C998   1.359       .  D
C998       H1000   1.086       .  S
C1001      C1002   1.346       .  D
C1001      H1003   1.089       .  S
C1002      H1004   1.087       .  S
C1005      C1006   1.332       .  D
C1005      H1007   1.089       .  S
C1006      H1008   1.087       .  S
C1009      H1011   1.087       .  S
C1010      C1780   1.492       .  S
C1010      H1012   1.086       .  S
C1013      C1014   1.357       .  D
C1013      H1015   1.086       .  S
C1014      H1016   1.087       .  S
C1017      C1018   1.359       .  D
C1017      H1019   1.086       .  S
C1018      H1020   1.086       .  S
C1021      C1022   1.344       .  D
C1021      H1023   1.087       .  S
C1022      H1024   1.088       .  S
C1025      C1026   1.353       .  D
C1026      H1028   1.089       .  S
C1029      C1030   1.358       .  D
C1029      H1031   1.086       .  S
C1030      H1032   1.086       .  S
C1033      C1034   1.348       .  D
C1033      H1035   1.086       .  S
C1034      H1036   1.087       .  S
C1037      C1038   1.350       .  D
C1037      H1039   1.087       .  S
C1038      H1040   1.086       .  S
C1041      C1042   1.330       .  D
C1041      H1043   1.087       .  S
C1042      H1044   1.088       .  S
C1045      C1664   1.519   1_455  S
C1045      C1046   1.363       .  D
C1045      H2135   1.086       .  S
C1046      H1048   1.086   1_455  S
H1047      C2133   1.086       .  S
C1049      C1050   1.347       .  D
C1049      H1051   1.087       .  S
C1050      H1052   1.088       .  S
C1053      C1054   1.350       .  D
C1053      H1055   1.087       .  S
C1054      H1056   1.088       .  S
C1057      C1058   1.352       .  D
C1057      H1059   1.087       .  S
C1058      H1060   1.086       .  S
C1061      C1062   1.357       .  D
C1061      H1063   1.086       .  S
C1062      H1064   1.087       .  S
C1065      C1918   1.513   1_455  S
C1065      C1066   1.360       .  D
C1065      H2155   1.086       .  S
C1066      H1068   1.086       .  S
H1067      C2153   1.086       .  S
C1069      C1070   1.344       .  D
C1070      H1072   1.088       .  S
C1073      C1074   1.341       .  D
C1073      H1075   1.086       .  S
C1074      H1076   1.087       .  S
C1077      C2166   1.327       .  D
C1077      H1079   1.088       .  S
C1078      C2165   1.329   1_455  D
C1078      H1080   1.088       .  S
C1081      H1083   1.088       .  S
C1082      H1084   1.086       .  S
C1085      C1086   1.353       .  D
C1085      H1087   1.086       .  S
C1086      H1088   1.087       .  S
Fe1089     O1105   2.030       .  S
Fe1089     O1095   2.148       .  S
Fe1089     O1102   2.150       .  S
Fe1089     O1094   2.032       .  S
Fe1089     O1100   1.946       .  S
Fe1090     O1093   2.013       .  S
Fe1090     O1097   2.065       .  S
Fe1090     O1101   2.038       .  S
Fe1090     O1106   2.081       .  S
Fe1090     O1100   1.960       .  S
Fe1091     O1109   2.104       .  S
Fe1091     O1640   2.071       .  S
Fe1091     O1103   2.103       .  S
Fe1091     O1636   2.070   1_545  S
Fe1091     O1644   1.955   1_545  S
O1092     Fe1635   2.085       .  S
O1092      C1099   1.278       .  A
O1093      C1651   1.262       .  A
O1094      C1099   1.270       .  A
O1095      C1098   1.281       .  A
O1096     Fe1635   2.062       .  S
O1096      C1108   1.267       .  A
O1097      C1110   1.265       .  A
C1098      O1647   1.270       .  A
C1098      C2154   1.518       .  S
C1099      C1618   1.453       .  S
O1100     Fe1635   1.941       .  S
O1101      C1104   1.265       .  A
O1102      C1104   1.285       .  A
O1103      C1642   1.276   1_545  A
C1104      C1629   1.495       .  S
O1105      C1110   1.270       .  A
O1106      C1108   1.269       .  A
C1107      O1637   1.262   1_545  A
C1107      O1109   1.278       .  A
C1107      C1613   1.465       .  S
C1108      C1625   1.471       .  S
C1110      C1622   1.445       .  S
Fe1111     O1127   2.038       .  S
Fe1111     O1117   2.105       .  S
Fe1111     O1124   2.114       .  S
Fe1111     O1116   2.046       .  S
Fe1111     O1122   1.965       .  S
Fe1112     O1115   2.022       .  S
Fe1112     O1119   2.058       .  S
Fe1112     O1123   2.044       .  S
Fe1112     O1128   2.067       .  S
Fe1112     O1122   1.980       .  S
Fe1113     O1131   2.094       .  S
Fe1113     O1118   2.078       .  S
Fe1113     O1125   2.101       .  S
Fe1113     O1114   2.064       .  S
Fe1113     O1122   1.972       .  S
O1114      C1121   1.273       .  A
O1115      C1129   1.266       .  A
O1116      C1121   1.270       .  A
O1117      C1120   1.274       .  A
O1118      C1130   1.270       .  A
O1119      C1132   1.264       .  A
C1120      O1125   1.274       .  A
C1121      C1594   1.449       .  S
O1123      C1126   1.265       .  A
O1124      C1126   1.276       .  A
C1126      C1605   1.488       .  S
O1127      C1132   1.269       .  A
O1128      C1130   1.265       .  A
C1129      O1131   1.275       .  A
C1129      C1597   1.476       .  S
C1130      C1601   1.479       .  S
C1132      C1621   1.445       .  S
Fe1133     O1149   2.085       .  S
Fe1133     O1139   2.026       .  S
Fe1133     O1146   2.038       .  S
Fe1133     O1138   2.109       .  S
Fe1133     O1144   1.967       .  S
Fe1134     O1137   2.093       .  S
Fe1134     O1141   2.115       .  S
Fe1134     O1145   2.065       .  S
Fe1134     O1150   2.103       .  S
Fe1134     O1144   1.974       .  S
Fe1135     O1153   2.003       .  S
Fe1135     O1140   2.078       .  S
Fe1135     O1147   2.074       .  S
Fe1135     O1136   2.034       .  S
Fe1135     O1144   1.979       .  S
O1136      C1143   1.262       .  A
O1137      C1151   1.276       .  A
O1138      C1143   1.274       .  A
O1139      C1142   1.266       .  A
O1140      C1152   1.267       .  A
O1141      C1154   1.275       .  A
C1142      O1147   1.267       .  A
C1142      C1586   1.452       .  S
C1143      C1602   1.480       .  S
O1145      C1148   1.275       .  A
O1146      C1148   1.271       .  A
C1148      C1581   1.444       .  S
O1149      C1154   1.268       .  A
O1150      C1152   1.275       .  A
C1151      O1153   1.263       .  A
C1151      C1577   1.467       .  S
C1152      C1630   1.497       .  S
C1154      C1573   1.512       .  S
Fe1155     O1171   2.089       .  S
Fe1155     O1161   2.043       .  S
Fe1155     O1168   2.046       .  S
Fe1155     O1160   2.109       .  S
Fe1155     O1166   1.955       .  S
Fe1156     O1159   2.106       .  S
Fe1156     O1163   2.102       .  S
Fe1156     O1167   2.074       .  S
Fe1156     O1172   2.089   1_545  S
Fe1156     O1166   1.953       .  S
Fe1157     O1175   1.999       .  S
Fe1157     O1162   2.078   1_545  S
Fe1157     O1169   2.074       .  S
Fe1157     O1158   2.026       .  S
Fe1157     O1166   1.961       .  S
O1158      C1165   1.262       .  A
O1159      C1173   1.280       .  A
O1160      C1165   1.275       .  A
O1161      C1164   1.269       .  A
O1162      C1718   1.266       .  A
O1163      C1176   1.274       .  A
C1164      O1169   1.266       .  A
C1164      C1585   1.455       .  S
C1165      C1626   1.470       .  S
O1167      C1170   1.278       .  A
O1168      C1170   1.272       .  A
C1170      C1570   1.448       .  S
O1171      C1176   1.270       .  A
O1172      C1718   1.271       .  A
C1173      O1175   1.263       .  A
C1173      C1565   1.467       .  S
C1174      O1706   1.270       .  A
C1174      O1716   1.272       .  A
C1174      C1606   1.486       .  S
C1176      C1562   1.507       .  S
Fe1177     O1193   2.094       .  S
Fe1177     O1183   2.060       .  S
Fe1177     O1190   2.060       .  S
Fe1177     O1182   2.097       .  S
Fe1177     O1188   1.960       .  S
Fe1178     O1725   2.079       .  S
Fe1178     O1729   2.091       .  S
Fe1178     O1189   2.050       .  S
Fe1178     O1194   2.098       .  S
Fe1178     O1188   1.956       .  S
Fe1179     O1197   2.023       .  S
Fe1179     O1184   2.069       .  S
Fe1179     O1191   2.064       .  S
Fe1179     O1180   2.053       .  S
Fe1179     O1188   1.968       .  S
O1180      C1187   1.263       .  A
O1181     Fe1722   2.076   1_545  S
O1181      C1195   1.268       .  A
O1182      C1187   1.272       .  A
O1183      C1186   1.276       .  A
O1184      C1196   1.274       .  A
O1185     Fe1722   2.114   1_545  S
O1185      C1742   1.275   1_545  A
C1186      O1191   1.271       .  A
C1186      C1549   1.463       .  S
C1187      C1557   1.490       .  S
O1189      C1192   1.271       .  A
O1190      C1192   1.272       .  A
C1192      C1545   1.450   1_556  S
O1193      C1198   1.272       .  A
O1194      C1196   1.277       .  A
C1195      O1741   1.263   1_545  A
C1195      C1569   1.469       .  S
C1196      C1553   1.480       .  S
O1197      C1739   1.260       .  A
C1198      O1729   1.272       .  A
C1198      C2085   1.506       .  S
Fe1199     O1215   2.115       .  S
Fe1199     O1205   2.028       .  S
Fe1199     O1212   2.039       .  S
Fe1199     O1204   2.140       .  S
Fe1199     O1210   1.948       .  S
Fe1200     O1203   2.098       .  S
Fe1200     O1207   2.073       .  S
Fe1200     O1211   2.083       .  S
Fe1200     O1216   2.069       .  S
Fe1200     O1210   1.937       .  S
Fe1201     O1219   2.000       .  S
Fe1201     O1206   2.108       .  S
Fe1201     O1213   2.095       .  S
Fe1201     O1202   2.039       .  S
Fe1201     O1210   1.949       .  S
O1202      C1209   1.265       .  A
O1203      C1217   1.275       .  A
O1204      C1209   1.283       .  A
O1205      C1208   1.263       .  A
O1206      C1218   1.274       .  A
O1207      C1220   1.269       .  A
C1208      O1213   1.272       .  A
C1208      C1550   1.457       .  S
C1209      C1537   1.495       .  S
O1211      C1214   1.279       .  A
O1212      C1214   1.271       .  A
C1214      C1529   1.451   1_556  S
O1215      C1220   1.275       .  A
O1216      C1218   1.270       .  A
C1217      O1219   1.260       .  A
C1217      C1582   1.459       .  S
C1218      C1533   1.486       .  S
C1220      C1525   1.499       .  S
Fe1221     O1237   2.065       .  S
Fe1221     O1227   2.091       .  S
Fe1221     O1234   2.103       .  S
Fe1221     O1226   2.054       .  S
Fe1221     O1232   1.945       .  S
Fe1222     O1225   2.027       .  S
Fe1222     O1229   2.065       .  S
Fe1222     O1233   2.046       .  S
Fe1222     O1238   2.058   1_545  S
Fe1222     O1232   1.950       .  S
Fe1223     O1241   2.101       .  S
Fe1223     O1772   2.148   1_545  S
Fe1223     O1235   2.120       .  S
Fe1223     O1224   2.069       .  S
Fe1223     O1232   1.948       .  S
O1224      C1231   1.278       .  A
O1225      C1239   1.256       .  A
O1226      C1231   1.272       .  A
O1227      C1230   1.273       .  A
O1228     Fe1767   2.131       .  S
O1228      C1240   1.283       .  A
O1229      C1242   1.272       .  A
C1230      O1235   1.277       .  A
C1230      C1574   1.514       .  S
C1231      C1614   1.457       .  S
O1233      C1236   1.261       .  A
O1234      C1236   1.272       .  A
O1237      C1242   1.278       .  A
O1238      C1784   1.273       .  A
C1239      O1241   1.270       .  A
C1239      C1517   1.477       .  S
C1240      O1782   1.272       .  A
C1240      C1538   1.484       .  S
C1242      C1521   1.464       .  S
Fe1243     O1259   2.036       .  S
Fe1243     O1249   2.085       .  S
Fe1243     O1248   2.049       .  S
Fe1243     O1254   1.951       .  S
Fe1244     O1247   1.981       .  S
Fe1244     O1251   2.084       .  S
Fe1244     O1255   2.032   1_655  S
Fe1244     O1260   2.074       .  S
Fe1244     O1254   1.953       .  S
Fe1245     O1263   2.115       .  S
Fe1245     O1250   2.080       .  S
Fe1245     O1257   2.102       .  S
Fe1245     O1246   2.087       .  S
Fe1245     O1254   1.951       .  S
O1246      C1253   1.283       .  A
O1247      C1261   1.259       .  A
O1248      C1253   1.277       .  A
O1249      C1252   1.267       .  A
O1250      C1262   1.270       .  A
O1251      C1264   1.273       .  A
C1252      O1257   1.272       .  A
C1252      C1561   1.506       .  S
C1253      C1598   1.453       .  S
O1256      C1258   1.279       .  A
C1258      C1534   1.495       .  S
O1259      C1264   1.268       .  A
O1260      C1262   1.267       .  A
C1261      O1263   1.280       .  A
C1261      C1513   1.476       .  S
C1262      C1558   1.483       .  S
Fe1265     O1281   2.033       .  S
Fe1265     O1271   2.110       .  S
Fe1265     O1278   2.141       .  S
Fe1265     O1270   2.030   1_554  S
Fe1265     O1276   1.944       .  S
Fe1266     O1269   1.998       .  S
Fe1266     O1273   2.074       .  S
Fe1266     O1277   2.031       .  S
Fe1266     O1282   2.102       .  S
Fe1266     O1276   1.949       .  S
Fe1267     O1285   2.099       .  S
Fe1267     O1272   2.077       .  S
Fe1267     O1279   2.078       .  S
Fe1267     O1268   2.077   1_554  S
Fe1267     O1276   1.937       .  S
O1268      C1275   1.277       .  A
O1269      C1283   1.259       .  A
O1270      C1275   1.268       .  A
O1271      C1274   1.276       .  A
O1272      C1284   1.272       .  A
O1273      C1286   1.267       .  A
C1274      O1279   1.271       .  A
C1274      C1526   1.500   1_554  S
C1275      C1514   1.444       .  S
O1277      C1280   1.267       .  A
O1278      C1280   1.285       .  A
C1280      C1510   1.488       .  S
O1281      C1286   1.261       .  A
O1282      C1284   1.272       .  A
C1283      O1285   1.274       .  A
C1283      C1497   1.458       .  S
C1284      C1505   1.488       .  S
C1286      C1501   1.451       .  S
Fe1287     O1303   2.099       .  S
Fe1287     O1293   2.041       .  S
Fe1287     O1300   2.046       .  S
Fe1287     O1292   2.120       .  S
Fe1287     O1298   1.952       .  S
Fe1288     O1291   2.113       .  S
Fe1288     O1295   2.108       .  S
Fe1288     O1299   2.079       .  S
Fe1288     O1304   2.088       .  S
Fe1288     O1298   1.957       .  S
Fe1289     O1307   2.005       .  S
Fe1289     O1294   2.081       .  S
Fe1289     O1301   2.072       .  S
Fe1289     O1290   2.041       .  S
Fe1289     O1298   1.966       .  S
O1290      C1297   1.265       .  A
O1291      C1305   1.282       .  A
O1292      C1297   1.278       .  A
O1293      C1296   1.269       .  A
O1294      C1306   1.266       .  A
O1295      C1308   1.275       .  A
C1296      O1301   1.265       .  A
C1296      C1490   1.453       .  S
O1299      C1302   1.279       .  A
O1300      C1302   1.272       .  A
C1302      C1485   1.450       .  S
O1303      C1308   1.272       .  A
O1304      C1306   1.271       .  A
C1305      O1307   1.264       .  A
C1305      C1530   1.476       .  S
C1306      C1494   1.489       .  S
C1308      C1482   1.515       .  S
Fe1309     O1325   2.037       .  S
Fe1309     O1315   2.096       .  S
Fe1309     O1322   2.134       .  S
Fe1309     O1314   2.050   1_554  S
Fe1309     O1320   1.955       .  S
Fe1310     O1313   1.999       .  S
Fe1310     O1317   2.068       .  S
Fe1310     O1321   2.038       .  S
Fe1310     O1326   2.083       .  S
Fe1310     O1320   1.970       .  S
Fe1311     O1329   2.109       .  S
Fe1311     O1316   2.093       .  S
Fe1311     O1323   2.114       .  S
Fe1311     O1312   2.081   1_554  S
Fe1311     O1320   1.960       .  S
O1312      C1319   1.279       .  A
O1313      C1327   1.260       .  A
O1314      C1319   1.272       .  A
O1315      C1318   1.272       .  A
O1316      C1328   1.274       .  A
O1317      C1330   1.266       .  A
C1318      O1323   1.276       .  A
C1318      C1542   1.513   1_554  S
C1319      C1518   1.457       .  S
O1321      C1324   1.264       .  A
O1322      C1324   1.281       .  A
C1324      C1493   1.492       .  S
O1325      C1330   1.263       .  A
O1326      C1328   1.269       .  A
C1327      O1329   1.278       .  A
C1327      C1473   1.469       .  S
C1328      C1477   1.491       .  S
C1330      C1502   1.451       .  S
Fe1331     O1347   2.145       .  S
Fe1331     O1337   2.043       .  S
Fe1331     O1344   2.037       .  S
Fe1331     O1342   1.951       .  S
Fe1332     O1335   2.094       .  S
Fe1332     O1339   2.082       .  S
Fe1332     O1887   2.077       .  S
Fe1332     O1892   2.074       .  S
Fe1332     O1342   1.944       .  S
Fe1333     O1351   2.013       .  S
Fe1333     O1882   2.094       .  S
Fe1333     O1345   2.079   1_655  S
Fe1333     O1342   1.963       .  S
O1334      C1885   1.264       .  A
O1335      C1349   1.276       .  A
O1336      C1885   1.277       .  A
O1337      C1340   1.268   1_655  A
O1338     Fe1877   2.090       .  S
O1338      C1350   1.270       .  A
O1339      C1352   1.271       .  A
C1340      O1345   1.268       .  A
C1341      O1878   1.266       .  A
C1341      O1880   1.280   1_545  A
C1341      C1478   1.491       .  S
O1343     Fe1876   2.088   1_545  S
O1343      C1346   1.279       .  A
O1344      C1890   1.271       .  A
C1346      O1888   1.270   1_545  A
C1346      C1469   1.456       .  S
O1347      C1352   1.281       .  A
O1348     Fe1876   2.075   1_545  S
O1348      C1350   1.270       .  A
C1349      O1351   1.264       .  A
C1349      C1546   1.464       .  S
C1350      C1509   1.483       .  S
C1352      C1465   1.520       .  S
Fe1353     O1369   2.091       .  S
Fe1353     O1359   2.032       .  S
Fe1353     O1366   2.036       .  S
Fe1353     O1358   2.111       .  S
Fe1353     O1364   1.954       .  S
Fe1354     O1357   2.105       .  S
Fe1354     O1361   2.113       .  S
Fe1354     O1365   2.070       .  S
Fe1354     O1370   2.090       .  S
Fe1354     O1364   1.958       .  S
Fe1355     O1373   2.013       .  S
Fe1355     O1360   2.082       .  S
Fe1355     O1367   2.069       .  S
Fe1355     O1356   2.037       .  S
Fe1355     O1364   1.969       .  S
O1356      C1363   1.266       .  A
O1357      C1371   1.279       .  A
O1358      C1363   1.277       .  A
O1359      C1362   1.265       .  A
O1360      C1372   1.267       .  A
O1361      C1374   1.278       .  A
C1362      O1367   1.264       .  A
C1362      C1453   1.448       .  S
C1363      C1457   1.476       .  S
O1365      C1368   1.275       .  A
O1366      C1368   1.269       .  A
C1368      C1566   1.447       .  S
O1369      C1374   1.272       .  A
O1370      C1372   1.273       .  A
C1371      O1373   1.264       .  A
C1371      C1470   1.465       .  S
C1372      C1462   1.488       .  S
Fe1375     O1391   2.096       .  S
Fe1375     O1381   2.035       .  S
Fe1375     O1388   2.036       .  S
Fe1375     O1380   2.114       .  S
Fe1375     O1386   1.957       .  S
Fe1376     O1379   2.103       .  S
Fe1376     O1383   2.107       .  S
Fe1376     O1387   2.072       .  S
Fe1376     O1392   2.085       .  S
Fe1376     O1386   1.961       .  S
Fe1377     O1395   2.011       .  S
Fe1377     O1382   2.086       .  S
Fe1377     O1389   2.074       .  S
Fe1377     O1378   2.039       .  S
Fe1377     O1386   1.970       .  S
O1378      C1385   1.265       .  A
O1379      C1393   1.279       .  A
O1380      C1385   1.276       .  A
O1381      C1384   1.267       .  A
O1382      C1394   1.268       .  A
O1383      C1396   1.274       .  A
C1384      O1389   1.266       .  A
C1384      C1454   1.451       .  S
C1385      C1449   1.480       .  S
O1387      C1390   1.277       .  A
O1388      C1390   1.270       .  A
C1390      C1578   1.447       .  S
O1391      C1396   1.272       .  A
O1392      C1394   1.271       .  A
C1393      O1395   1.265       .  A
C1393      C1486   1.475       .  S
C1394      C1445   1.489       .  S
C1396      C1590   1.512       .  S
Fe1397     O1413   2.040       .  S
Fe1397     O1403   2.139       .  S
Fe1397     O1410   2.146       .  S
Fe1397     O1402   2.031       .  S
Fe1397     O1408   1.951       .  S
Fe1398     O1401   2.019       .  S
Fe1398     O1405   2.054       .  S
Fe1398     O1409   2.035       .  S
Fe1398     O1414   2.064       .  S
Fe1398     O1408   1.966       .  S
Fe1399     O1417   2.091       .  S
Fe1399     O1404   2.078       .  S
Fe1399     O1411   2.086       .  S
Fe1399     O1400   2.068       .  S
Fe1399     O1408   1.945       .  S
O1400      C1407   1.274       .  A
O1401      C1415   1.266       .  A
O1402      C1407   1.270       .  A
O1403      C1406   1.280       .  A
O1404      C1416   1.270       .  A
O1405      C1418   1.261       .  A
C1406      O1411   1.271       .  A
C1406      C1466   1.520       .  S
C1407      C1498   1.441       .  S
O1409      C1412   1.265       .  A
O1410      C1412   1.284       .  A
C1412      C1446   1.492       .  S
O1413      C1418   1.270       .  A
O1414      C1416   1.264       .  A
C1415      O1417   1.276       .  A
C1415      C1593   1.467       .  S
C1416      C1458   1.477       .  S
C1418      C1441   1.445       .  S
Fe1419     O1435   2.032       .  S
Fe1419     O1425   2.101       .  S
Fe1419     O1432   2.125       .  S
Fe1419     O1424   2.039       .  S
Fe1419     O1430   1.952       .  S
Fe1420     O1423   2.013       .  S
Fe1420     O1427   2.056       .  S
Fe1420     O1975   2.034       .  S
Fe1420     O1980   2.062       .  S
Fe1420     O1430   1.969       .  S
Fe1421     O1439   2.100       .  S
Fe1421     O1970   2.092       .  S
Fe1421     O1433   2.108       .  S
Fe1421     O1966   2.065       .  S
Fe1421     O1430   1.959       .  S
O1422     Fe1965   2.075   1_545  S
O1422      C1429   1.276       .  A
O1423      C1437   1.265       .  A
O1424      C1973   1.271       .  A
O1425      C1428   1.274       .  A
O1426     Fe1965   2.075   1_545  S
O1426      C1438   1.270       .  A
O1427      C1440   1.261       .  A
C1428      O1433   1.277       .  A
C1428      C1481   1.514       .  S
C1429      O1968   1.271   1_545  A
C1429      C1474   1.450       .  S
O1431     Fe1964   2.029   1_545  S
O1431      C1434   1.265       .  A
O1432      C1978   1.279       .  A
C1434      O1976   1.286   1_545  A
C1434      C1461   1.490       .  S
O1435      C1440   1.267       .  A
O1436     Fe1964   2.082   1_545  S
O1436      C1438   1.268       .  A
C1437      O1439   1.278       .  A
C1437      C1617   1.463       .  S
C1438      C1450   1.481       .  S
C1440      C1442   1.441       .  S
C1441      C1442   1.325       .  D
C1441      H1443   1.088       .  S
C1442      H1444   1.088       .  S
C1445      C1446   1.357       .  D
C1445      H1447   1.087       .  S
C1446      H1448   1.086       .  S
C1449      C1450   1.352       .  D
C1449      H1451   1.086       .  S
C1450      H1452   1.087       .  S
C1453      H1455   1.087       .  S
C1454      H1456   1.087       .  S
C1457      C1458   1.351       .  D
C1457      H1459   1.086       .  S
C1458      H1460   1.087       .  S
C1461      C1462   1.359       .  D
C1461      H1463   1.086       .  S
C1462      H1464   1.087       .  S
C1465      C1466   1.362       .  D
C1465      H1467   1.086       .  S
C1466      H1468   1.086       .  S
C1469      C1470   1.349       .  D
C1469      H1471   1.089       .  S
C1470      H1472   1.086   1_545  S
C1473      C1474   1.350       .  D
C1473      H1475   1.086   1_545  S
C1474      H2020   1.088       .  S
H1476      C2018   1.088       .  S
C1477      C1478   1.358       .  D
C1477      H1479   1.087       .  S
C1478      H1480   1.086       .  S
C1481      C1482   1.360       .  D
C1481      H1483   1.086       .  S
C1482      H1484   1.086       .  S
C1485      C1486   1.350       .  D
C1485      H1487   1.086       .  S
C1486      H1488   1.087       .  S
C1489      C1490   1.330       .  D
C1489      H1491   1.088       .  S
C1490      H1492   1.087       .  S
C1493      C1494   1.357       .  D
C1493      H1495   1.086       .  S
C1494      H1496   1.087       .  S
C1497      C1498   1.344       .  D
C1497      H1499   1.087       .  S
C1498      H1500   1.088       .  S
C1501      C1502   1.328       .  D
C1501      H1503   1.089       .  S
C1502      H1504   1.089       .  S
C1505      C1506   1.357       .  D
C1505      H1507   1.087       .  S
C1506      H1508   1.086       .  S
C1509      C1510   1.354       .  D
C1509      H1511   1.087       .  S
C1510      H1512   1.086       .  S
C1513      C1514   1.355       .  D
C1513      H1515   1.086       .  S
C1514      H1516   1.086       .  S
C1517      C1518   1.353       .  D
C1517      H1519   1.086       .  S
C1518      H1520   1.087       .  S
C1521      C1522   1.334       .  D
C1521      H1523   1.087       .  S
C1525      C1526   1.354       .  D
C1525      H1527   1.087       .  S
C1526      H1528   1.086   1_556  S
C1529      C1530   1.352       .  D
C1529      H1531   1.087       .  S
C1530      H1532   1.086       .  S
C1533      C1534   1.357       .  D
C1533      H1535   1.087       .  S
C1534      H1536   1.086       .  S
C1537      C1538   1.355       .  D
C1537      H1539   1.087       .  S
C1538      H1540   1.086       .  S
C1541      C1742   1.516       .  S
C1541      C1542   1.360   1_565  D
C1541      H2087   1.086       .  S
C1542      H1544   1.086       .  S
H1543      C2085   1.086       .  S
C1545      C1546   1.345       .  D
C1545      H1547   1.088       .  S
C1546      H1548   1.087       .  S
C1549      C1550   1.333       .  D
C1549      H1551   1.086       .  S
C1550      H1552   1.089       .  S
C1553      C2098   1.351       .  D
C1553      H1555   1.087       .  S
C1554      C2097   1.353   1_545  D
C1554      H1556   1.087       .  S
C1557      C1558   1.355       .  D
C1557      H1559   1.086       .  S
C1558      H1560   1.087       .  S
C1561      C1562   1.354       .  D
C1561      H1563   1.087       .  S
C1562      H1564   1.086       .  S
C1565      C1566   1.350       .  D
C1565      H1567   1.087       .  S
C1566      H1568   1.088       .  S
C1569      C1570   1.346       .  D
C1569      H2115   1.086       .  S
C1570      H1572   1.087   1_545  S
H1571      C2113   1.087       .  S
C1573      C1574   1.359       .  D
C1573      H1575   1.086       .  S
C1574      H1576   1.086       .  S
C1577      C1578   1.349       .  D
C1577      H1579   1.087       .  S
C1578      H1580   1.088       .  S
C1581      C1582   1.346       .  D
C1581      H1583   1.088       .  S
C1582      H1584   1.087       .  S
C1585      C1586   1.335       .  D
C1585      H1587   1.088       .  S
C1586      H1588   1.087       .  S
C1589      C1590   1.359       .  D
C1590      H1592   1.086       .  S
C1593      C1594   1.344       .  D
C1593      H1595   1.087       .  S
C1594      H1596   1.087       .  S
C1597      C1598   1.348       .  D
C1597      H1599   1.087       .  S
C1598      H1600   1.087       .  S
C1601      C1602   1.352       .  D
C1601      H1603   1.088       .  S
C1602      H1604   1.086       .  S
C1605      C1606   1.355       .  D
C1605      H1607   1.086       .  S
C1606      H1608   1.087       .  S
C1609      C1610   1.359   1_545  D
C1610      C1642   1.513       .  S
C1610      H1612   1.086       .  S
C1613      C1614   1.351       .  D
C1613      H2159   1.087       .  S
C1614      H1616   1.088   1_545  S
H1615      C2157   1.087       .  S
C1617      C1618   1.347       .  D
C1617      H1619   1.086       .  S
C1618      H1620   1.089       .  S
C1621      H1623   1.088       .  S
C1622      H1624   1.088       .  S
C1625      C2170   1.348       .  D
C1625      H1627   1.087       .  S
C1626      C2169   1.349       .  D
C1626      H1628   1.086       .  S
C1629      C1630   1.361       .  D
C1629      H1631   1.086       .  S
C1630      H1632   1.087       .  S
Fe1633     O1649   2.029       .  S
Fe1633     O1639   2.106       .  S
Fe1633     O1646   2.115       .  S
Fe1633     O1638   2.032       .  S
Fe1633     O1644   1.941       .  S
Fe1634     O1637   2.012       .  S
Fe1634     O1641   2.053       .  S
Fe1634     O1645   2.037       .  S
Fe1634     O1650   2.064       .  S
Fe1634     O1644   1.961       .  S
Fe1635     O1653   2.108       .  S
Fe1635     O1647   2.078       .  S
O1636      C1643   1.274       .  A
O1638      C1643   1.268       .  A
O1639      C1642   1.275       .  A
O1640      C1652   1.269   1_545  A
O1641      C1654   1.260       .  A
C1643      C2162   1.442       .  S
O1645      C1648   1.266       .  A
O1646      C1648   1.278       .  A
C1648      C2173   1.477       .  S
O1649      C1654   1.268       .  A
O1650      C1652   1.265       .  A
C1651      O1653   1.278       .  A
C1651      C2157   1.471       .  S
C1652      C2169   1.471   1_565  S
C1654      C2166   1.440       .  S
Fe1655     O1671   2.032       .  S
Fe1655     O1661   2.108       .  S
Fe1655     O1668   2.115       .  S
Fe1655     O1660   2.039       .  S
Fe1655     O1666   1.962       .  S
Fe1656     O1659   2.023       .  S
Fe1656     O1663   2.068       .  S
Fe1656     O1667   2.048       .  S
Fe1656     O1672   2.075       .  S
Fe1656     O1666   1.983       .  S
Fe1657     O1675   2.087       .  S
Fe1657     O1662   2.075       .  S
Fe1657     O1669   2.102       .  S
Fe1657     O1658   2.062       .  S
Fe1657     O1666   1.973       .  S
O1658      C1665   1.275       .  A
O1659      C1673   1.266       .  A
O1660      C1665   1.271       .  A
O1661      C1664   1.273       .  A
O1662      C1674   1.269       .  A
O1663      C1676   1.267       .  A
C1664      O1669   1.271       .  A
C1665      C2138   1.441       .  S
O1667      C1670   1.264       .  A
O1668      C1670   1.276       .  A
C1670      C2149   1.489       .  S
O1671      C1676   1.270       .  A
O1672      C1674   1.267       .  A
C1673      O1675   1.275       .  A
C1673      C2141   1.470       .  S
C1674      C2145   1.482       .  S
C1676      C2165   1.450       .  S
Fe1677     O1693   2.088       .  S
Fe1677     O1683   2.066       .  S
Fe1677     O1690   2.056       .  S
Fe1677     O1682   2.099       .  S
Fe1677     O1688   1.934       .  S
Fe1678     O1681   2.099       .  S
Fe1678     O1685   2.100       .  S
Fe1678     O1689   2.048       .  S
Fe1678     O1694   2.125       .  S
Fe1678     O1688   1.942       .  S
Fe1679     O1697   2.023       .  S
Fe1679     O1684   2.044       .  S
Fe1679     O1691   2.052       .  S
Fe1679     O1680   2.057       .  S
Fe1679     O1688   1.953       .  S
O1680      C1687   1.263       .  A
O1681      C1695   1.268       .  A
O1682      C1687   1.272       .  A
O1683      C1686   1.279       .  A
O1684      C1696   1.273       .  A
O1685      C1698   1.274       .  A
C1686      O1691   1.269       .  A
C1686      C2130   1.457       .  S
C1687      C2146   1.489       .  S
O1689      C1692   1.273       .  A
O1690      C1692   1.272       .  A
C1692      C2125   1.445       .  S
O1693      C1698   1.273       .  A
O1694      C1696   1.285       .  A
C1695      O1697   1.254       .  A
C1695      C2121   1.472       .  S
C1696      C2174   1.475       .  S
C1698      C2117   1.502       .  S
Fe1699     O1715   2.094       .  S
Fe1699     O1705   2.038       .  S
Fe1699     O1712   2.036       .  S
Fe1699     O1704   2.116       .  S
Fe1699     O1710   1.941       .  S
Fe1700     O1703   2.116       .  S
Fe1700     O1707   2.105       .  S
Fe1700     O1711   2.082       .  S
Fe1700     O1716   2.079       .  S
Fe1700     O1710   1.947       .  S
Fe1701     O1719   2.002       .  S
Fe1701     O1706   2.091       .  S
Fe1701     O1713   2.072       .  S
Fe1701     O1702   2.031       .  S
Fe1701     O1710   1.953       .  S
O1702      C1709   1.265       .  A
O1703      C1717   1.279       .  A
O1704      C1709   1.279       .  A
O1705      C1708   1.264       .  A
O1707      C1720   1.277       .  A
C1708      O1713   1.266       .  A
C1708      C2129   1.452       .  S
C1709      C2170   1.477       .  S
O1711      C1714   1.278       .  A
O1712      C1714   1.268       .  A
C1714      C2114   1.448       .  S
O1715      C1720   1.273       .  A
C1717      O1719   1.259       .  A
C1717      C2109   1.463       .  S
C1718      C2150   1.490       .  S
C1720      C2106   1.507       .  S
Fe1721     O1737   2.099       .  S
Fe1721     O1727   2.074       .  S
Fe1721     O1734   2.074       .  S
Fe1721     O1726   2.109       .  S
Fe1721     O1732   1.947       .  S
Fe1722     O1733   2.056       .  S
Fe1722     O1738   2.134   1_565  S
Fe1722     O1732   1.952       .  S
Fe1723     O1741   2.038       .  S
Fe1723     O1728   2.050       .  S
Fe1723     O1735   2.051       .  S
Fe1723     O1724   2.052       .  S
Fe1723     O1732   1.952       .  S
O1724      C1731   1.263       .  A
O1725      C1739   1.267       .  A
O1726      C1731   1.274       .  A
O1727      C1730   1.279       .  A
O1728      C1740   1.268       .  A
C1730      O1735   1.268       .  A
C1730      C2093   1.459       .  S
C1731      C2101   1.498       .  S
O1733      C1736   1.275       .  A
O1734      C1736   1.276       .  A
C1736      C2089   1.456   1_556  S
O1737      C1742   1.274       .  A
O1738      C1740   1.282   1_545  A
C1739      C2113   1.467       .  S
C1740      C2097   1.483       .  S
Fe1743     O1759   2.120       .  S
Fe1743     O1749   2.029       .  S
Fe1743     O1756   2.030       .  S
Fe1743     O1748   2.140       .  S
Fe1743     O1754   1.936       .  S
Fe1744     O1747   2.101       .  S
Fe1744     O1751   2.083       .  S
Fe1744     O1755   2.084       .  S
Fe1744     O1760   2.071       .  S
Fe1744     O1754   1.939       .  S
Fe1745     O1763   2.002       .  S
Fe1745     O1750   2.117       .  S
Fe1745     O1757   2.089       .  S
Fe1745     O1746   2.049       .  S
Fe1745     O1754   1.943       .  S
O1746      C1753   1.269       .  A
O1747      C1761   1.274       .  A
O1748      C1753   1.284       .  A
O1749      C1752   1.262       .  A
O1750      C1762   1.276       .  A
O1751      C1764   1.272       .  A
C1752      O1757   1.271       .  A
C1752      C2094   1.453       .  S
C1753      C2081   1.498       .  S
O1755      C1758   1.278       .  A
O1756      C1758   1.268       .  A
C1758      C2073   1.445   1_556  S
O1759      C1764   1.276       .  A
O1760      C1762   1.272       .  A
C1761      O1763   1.258       .  A
C1761      C2126   1.457       .  S
C1762      C2077   1.490       .  S
C1764      C2069   1.505       .  S
Fe1765     O1781   2.067       .  S
Fe1765     O1771   2.088       .  S
Fe1765     O1778   2.104       .  S
Fe1765     O1770   2.065       .  S
Fe1765     O1776   1.946       .  S
Fe1766     O1769   2.024       .  S
Fe1766     O1773   2.062       .  S
Fe1766     O1777   2.050       .  S
Fe1766     O1782   2.058       .  S
Fe1766     O1776   1.948       .  S
Fe1767     O1785   2.084       .  S
Fe1767     O1779   2.106       .  S
Fe1767     O1768   2.061       .  S
Fe1767     O1776   1.950       .  S
O1768      C1775   1.275       .  A
O1769      C1783   1.260       .  A
O1770      C1775   1.272       .  A
O1771      C1774   1.273       .  A
O1772      C1784   1.287       .  A
O1773      C1786   1.270       .  A
C1774      O1779   1.275       .  A
C1774      C2118   1.502       .  S
C1775      C2158   1.458       .  S
O1777      C1780   1.262       .  A
O1778      C1780   1.273       .  A
O1781      C1786   1.277       .  A
C1783      O1785   1.268       .  A
C1783      C2061   1.470       .  S
C1784      C2082   1.490       .  S
C1786      C2065   1.466       .  S
Fe1787     O1803   2.032       .  S
Fe1787     O1793   2.098       .  S
Fe1787     O1792   2.040       .  S
Fe1787     O1798   1.938       .  S
Fe1788     O1791   2.001       .  S
Fe1788     O1795   2.088       .  S
Fe1788     O1799   2.047   1_655  S
Fe1788     O1804   2.105       .  S
Fe1788     O1798   1.950       .  S
Fe1789     O1807   2.117       .  S
Fe1789     O1794   2.069       .  S
Fe1789     O1801   2.099       .  S
Fe1789     O1790   2.089       .  S
Fe1789     O1798   1.944       .  S
O1790      C1797   1.280       .  A
O1791      C1805   1.259       .  A
O1792      C1797   1.271       .  A
O1793      C1796   1.272       .  A
O1794      C1806   1.271       .  A
O1795      C1808   1.271       .  A
C1796      O1801   1.275       .  A
C1796      C2105   1.507       .  S
C1797      C2142   1.451       .  S
O1800      C1802   1.286       .  A
C1802      C2078   1.499       .  S
O1803      C1808   1.265       .  A
O1804      C1806   1.274       .  A
C1805      O1807   1.279       .  A
C1805      C2057   1.466       .  S
C1806      C2102   1.487       .  S
Fe1809     O1825   2.034       .  S
Fe1809     O1815   2.108       .  S
Fe1809     O1822   2.139       .  S
Fe1809     O1814   2.035   1_554  S
Fe1809     O1820   1.951       .  S
Fe1810     O1813   1.999       .  S
Fe1810     O1817   2.076       .  S
Fe1810     O1821   2.035       .  S
Fe1810     O1826   2.095       .  S
Fe1810     O1820   1.957       .  S
Fe1811     O1829   2.101       .  S
Fe1811     O1816   2.086       .  S
Fe1811     O1823   2.088       .  S
Fe1811     O1812   2.085       .  S
Fe1811     O1820   1.941       .  S
O1812      C1819   1.279   1_554  A
O1813      C1827   1.260       .  A
O1814      C1819   1.271       .  A
O1815      C1818   1.274       .  A
O1816      C1828   1.274       .  A
O1817      C1830   1.268       .  A
C1818      O1823   1.273       .  A
C1818      C2070   1.505   1_554  S
C1819      C2058   1.453       .  S
O1821      C1824   1.266       .  A
O1822      C1824   1.283       .  A
C1824      C2054   1.490       .  S
O1825      C1830   1.263       .  A
O1826      C1828   1.271       .  A
C1827      O1829   1.276       .  A
C1827      C2041   1.459       .  S
C1828      C2049   1.490       .  S
C1830      C2045   1.453       .  S
Fe1831     O1847   2.130       .  S
Fe1831     O1837   2.042       .  S
Fe1831     O1844   2.044       .  S
Fe1831     O1836   2.141       .  S
Fe1831     O1842   1.945       .  S
Fe1832     O1835   2.097       .  S
Fe1832     O1839   2.075       .  S
Fe1832     O1843   2.080       .  S
Fe1832     O1848   2.065       .  S
Fe1832     O1842   1.939       .  S
Fe1833     O1851   2.011       .  S
Fe1833     O1838   2.086       .  S
Fe1833     O1845   2.068       .  S
Fe1833     O1834   2.042       .  S
Fe1833     O1842   1.955       .  S
O1834      C1841   1.268       .  A
O1835      C1849   1.276       .  A
O1836      C1841   1.285       .  A
O1837      C1840   1.270       .  A
O1838      C1850   1.269       .  A
O1839      C1852   1.269       .  A
C1840      O1845   1.265       .  A
C1840      C2034   1.450       .  S
O1843      C1846   1.277       .  A
O1844      C1846   1.272       .  A
C1846      C2029   1.454       .  S
O1847      C1852   1.278       .  A
O1848      C1850   1.268       .  A
C1849      O1851   1.263       .  A
C1849      C2074   1.467       .  S
C1850      C2038   1.475       .  S
C1852      C2026   1.508       .  S
Fe1853     O1869   2.034       .  S
Fe1853     O1859   2.081       .  S
Fe1853     O1866   2.120       .  S
Fe1853     O1858   2.037   1_554  S
Fe1853     O1864   1.951       .  S
Fe1854     O1857   1.991       .  S
Fe1854     O1861   2.077       .  S
Fe1854     O1865   2.029       .  S
Fe1854     O1870   2.087       .  S
Fe1854     O1864   1.958       .  S
Fe1855     O1873   2.111       .  S
Fe1855     O1860   2.086       .  S
Fe1855     O1867   2.105       .  S
Fe1855     O1856   2.080   1_554  S
Fe1855     O1864   1.954       .  S
O1856      C1863   1.279       .  A
O1857      C1871   1.260       .  A
O1858      C1863   1.270       .  A
O1859      C1862   1.269       .  A
O1860      C1872   1.272       .  A
O1861      C1874   1.268       .  A
C1862      O1867   1.274       .  A
C1862      C2086   1.501   1_554  S
C1863      C2062   1.447       .  S
O1865      C1868   1.262       .  A
O1866      C1868   1.278       .  A
C1868      C2037   1.481       .  S
O1869      C1874   1.263       .  A
O1870      C1872   1.269       .  A
C1871      O1873   1.279       .  A
C1871      C2017   1.466       .  S
C1872      C2021   1.490       .  S
C1874      C2046   1.453       .  S
Fe1875     O1891   2.145       .  S
Fe1875     O1881   2.039       .  S
Fe1875     O1888   2.034       .  S
Fe1875     O1886   1.953       .  S
Fe1876     O1879   2.102       .  S
Fe1876     O1883   2.083       .  S
Fe1876     O1886   1.944       .  S
Fe1877     O1895   2.018   1_545  S
Fe1877     O1889   2.076   1_545  S
Fe1877     O1886   1.965   1_545  S
O1879      C1893   1.278       .  A
O1881      C1884   1.269       .  A
O1882      C1894   1.270       .  A
O1883      C1896   1.271       .  A
C1884      O1889   1.268       .  A
C1885      C2022   1.492       .  S
O1887      C1890   1.276       .  A
C1890      C2013   1.450       .  S
O1891      C1896   1.280       .  A
O1892      C1894   1.269       .  A
C1893      O1895   1.265       .  A
C1893      C2090   1.473       .  S
C1894      C2053   1.484       .  S
C1896      C2009   1.521       .  S
Fe1897     O1913   2.123       .  S
Fe1897     O1903   2.039       .  S
Fe1897     O1910   2.034       .  S
Fe1897     O1902   2.145       .  S
Fe1897     O1908   1.948       .  S
Fe1898     O1901   2.102       .  S
Fe1898     O1905   2.090       .  S
Fe1898     O1909   2.084       .  S
Fe1898     O1914   2.088       .  S
Fe1898     O1908   1.946       .  S
Fe1899     O1917   2.012       .  S
Fe1899     O1904   2.072       .  S
Fe1899     O1911   2.058       .  S
Fe1899     O1900   2.036       .  S
Fe1899     O1908   1.962       .  S
O1900      C1907   1.267       .  A
O1901      C1915   1.278       .  A
O1902      C1907   1.285       .  A
O1903      C1906   1.267       .  A
O1904      C1916   1.266       .  A
O1905      C1918   1.273       .  A
C1906      O1911   1.261       .  A
C1906      C1997   1.447   1_655  S
C1907      C2001   1.493       .  S
O1909      C1912   1.278       .  A
O1910      C1912   1.271       .  A
C1912      C2110   1.454       .  S
O1913      C1918   1.277       .  A
O1914      C1916   1.273       .  A
C1915      O1917   1.264       .  A
C1915      C2014   1.464       .  S
C1916      C2006   1.484       .  S
Fe1919     O1935   2.106       .  S
Fe1919     O1925   2.037       .  S
Fe1919     O1932   2.042       .  S
Fe1919     O1924   2.125       .  S
Fe1919     O1930   1.953       .  S
Fe1920     O1923   2.110       .  S
Fe1920     O1927   2.120       .  S
Fe1920     O1931   2.078       .  S
Fe1920     O1936   2.095       .  S
Fe1920     O1930   1.956       .  S
Fe1921     O1939   2.011       .  S
Fe1921     O1926   2.088       .  S
Fe1921     O1933   2.073       .  S
Fe1921     O1922   2.035       .  S
Fe1921     O1930   1.971       .  S
O1922      C1929   1.266       .  A
O1923      C1937   1.281       .  A
O1924      C1929   1.280       .  A
O1925      C1928   1.266       .  A
O1926      C1938   1.267       .  A
O1927      C1940   1.277       .  A
C1928      O1933   1.265       .  A
C1928      C1998   1.451       .  S
C1929      C1993   1.480       .  S
O1931      C1934   1.278       .  A
O1932      C1934   1.270       .  A
C1934      C2122   1.452       .  S
O1935      C1940   1.275       .  A
O1936      C1938   1.273       .  A
C1937      O1939   1.265       .  A
C1937      C2030   1.471       .  S
C1938      C1989   1.495       .  S
C1940      C2134   1.523       .  S
Fe1941     O1957   2.035       .  S
Fe1941     O1947   2.142       .  S
Fe1941     O1954   2.153       .  S
Fe1941     O1946   2.029       .  S
Fe1941     O1952   1.948       .  S
Fe1942     O1945   2.010       .  S
Fe1942     O1949   2.077       .  S
Fe1942     O1953   2.037       .  S
Fe1942     O1958   2.098       .  S
Fe1942     O1952   1.963       .  S
Fe1943     O1961   2.089       .  S
Fe1943     O1948   2.083       .  S
Fe1943     O1955   2.090       .  S
Fe1943     O1944   2.074       .  S
Fe1943     O1952   1.945       .  S
O1944      C1951   1.275       .  A
O1945      C1959   1.264       .  A
O1946      C1951   1.270       .  A
O1947      C1950   1.280       .  A
O1948      C1960   1.272       .  A
O1949      C1962   1.266       .  A
C1950      O1955   1.272       .  A
C1950      C2010   1.521       .  S
C1951      C2042   1.447       .  S
O1953      C1956   1.267       .  A
O1954      C1956   1.287       .  A
C1956      C1990   1.496       .  S
O1957      C1962   1.267       .  A
O1958      C1960   1.271       .  A
C1959      O1961   1.275       .  A
C1959      C2137   1.460       .  S
C1960      C2002   1.491       .  S
C1962      C1985   1.451       .  S
Fe1963     O1979   2.046       .  S
Fe1963     O1969   2.130       .  S
Fe1963     O1976   2.149       .  S
Fe1963     O1968   2.040       .  S
Fe1963     O1974   1.946       .  S
Fe1964     O1967   2.008       .  S
Fe1964     O1971   2.069       .  S
Fe1964     O1974   1.954       .  S
Fe1965     O1983   2.094       .  S
Fe1965     O1977   2.076       .  S
Fe1965     O1974   1.939       .  S
O1966      C1973   1.275       .  A
O1967      C1981   1.263       .  A
O1969      C1972   1.279       .  A
O1970      C1982   1.273       .  A
O1971      C1984   1.265       .  A
C1972      O1977   1.270       .  A
C1972      C2025   1.508       .  S
C1973      C2018   1.445       .  S
O1975      C1978   1.264       .  A
C1978      C2005   1.482       .  S
O1979      C1984   1.268       .  A
O1980      C1982   1.264       .  A
C1981      O1983   1.275       .  A
C1981      C2161   1.462       .  S
C1982      C1994   1.484       .  S
C1984      C1986   1.451       .  S
C1985      C1986   1.330       .  D
C1985      H1987   1.087       .  S
C1986      H1988   1.087       .  S
C1989      C1990   1.361       .  D
C1989      H1991   1.087       .  S
C1990      H1992   1.086       .  S
C1993      C1994   1.355       .  D
C1993      H1995   1.086       .  S
C1994      H1996   1.087       .  S
C1997      H1999   1.088   1_455  S
C1998      H2000   1.087       .  S
C2001      C2002   1.358       .  D
C2001      H2003   1.086       .  S
C2002      H2004   1.087       .  S
C2005      C2006   1.356       .  D
C2005      H2007   1.086       .  S
C2006      H2008   1.087       .  S
C2009      C2010   1.362       .  D
C2009      H2011   1.086       .  S
C2010      H2012   1.086       .  S
C2013      C2014   1.346       .  D
C2013      H2015   1.088       .  S
C2014      H2016   1.087       .  S
C2017      C2018   1.350       .  D
C2017      H2019   1.086       .  S
C2021      C2022   1.357       .  D
C2021      H2023   1.087       .  S
C2022      H2024   1.086       .  S
C2025      C2026   1.356       .  D
C2025      H2027   1.086       .  S
C2026      H2028   1.086       .  S
C2029      C2030   1.349       .  D
C2029      H2031   1.088       .  S
C2030      H2032   1.086       .  S
C2033      C2034   1.328       .  D
C2033      H2035   1.087       .  S
C2034      H2036   1.088       .  S
C2037      C2038   1.351       .  D
C2037      H2039   1.086       .  S
C2038      H2040   1.087       .  S
C2041      C2042   1.346       .  D
C2041      H2043   1.087       .  S
C2042      H2044   1.088       .  S
C2045      C2046   1.328       .  D
C2045      H2047   1.089       .  S
C2046      H2048   1.089       .  S
C2049      C2050   1.359       .  D
C2049      H2051   1.087       .  S
C2050      H2052   1.086       .  S
C2053      C2054   1.355       .  D
C2053      H2055   1.087       .  S
C2054      H2056   1.086       .  S
C2057      C2058   1.351       .  D
C2057      H2059   1.086       .  S
C2058      H2060   1.088       .  S
C2061      C2062   1.348       .  D
C2061      H2063   1.086       .  S
C2062      H2064   1.087       .  S
C2065      C2066   1.334       .  D
C2065      H2067   1.086       .  S
C2069      C2070   1.358       .  D
C2069      H2071   1.086       .  S
C2070      H2072   1.086   1_556  S
C2073      C2074   1.345       .  D
C2073      H2075   1.086       .  S
C2074      H2076   1.087       .  S
C2077      C2078   1.359       .  D
C2077      H2079   1.087       .  S
C2078      H2080   1.086       .  S
C2081      C2082   1.355       .  D
C2081      H2083   1.087       .  S
C2082      H2084   1.086       .  S
C2085      C2086   1.355       .  D
C2086      H2088   1.087       .  S
C2089      C2090   1.348       .  D
C2089      H2091   1.087       .  S
C2090      H2092   1.087       .  S
C2093      C2094   1.332       .  D
C2093      H2095   1.087       .  S
C2094      H2096   1.089       .  S
C2097      H2099   1.086       .  S
C2098      H2100   1.086       .  S
C2101      C2102   1.358       .  D
C2101      H2103   1.086       .  S
C2102      H2104   1.087       .  S
C2105      C2106   1.353       .  D
C2105      H2107   1.086       .  S
C2106      H2108   1.087       .  S
C2109      C2110   1.350       .  D
C2109      H2111   1.086       .  S
C2110      H2112   1.089       .  S
C2113      C2114   1.346       .  D
C2114      H2116   1.088       .  S
C2117      C2118   1.357       .  D
C2117      H2119   1.086       .  S
C2118      H2120   1.087       .  S
C2121      C2122   1.351       .  D
C2121      H2123   1.086       .  S
C2122      H2124   1.087       .  S
C2125      C2126   1.346       .  D
C2125      H2127   1.089       .  S
C2126      H2128   1.086       .  S
C2129      C2130   1.333       .  D
C2129      H2131   1.089       .  S
C2130      H2132   1.087       .  S
C2133      C2134   1.365       .  D
C2134      H2136   1.086       .  S
C2137      C2138   1.342       .  D
C2137      H2139   1.087       .  S
C2138      H2140   1.087       .  S
C2141      C2142   1.345       .  D
C2141      H2143   1.087       .  S
C2142      H2144   1.086       .  S
C2145      C2146   1.354       .  D
C2145      H2147   1.087       .  S
C2146      H2148   1.086       .  S
C2149      C2150   1.356       .  D
C2149      H2151   1.086       .  S
C2150      H2152   1.087       .  S
C2153      C2154   1.360       .  D
C2154      H2156   1.086       .  S
C2157      C2158   1.351       .  D
C2158      H2160   1.087       .  S
C2161      C2162   1.343       .  D
C2161      H2163   1.087       .  S
C2162      H2164   1.087       .  S
C2165      H2167   1.087       .  S
C2166      H2168   1.088       .  S
C2169      H2171   1.088       .  S
C2170      H2172   1.087       .  S
C2173      C2174   1.350       .  D
C2173      H2175   1.086       .  S
C2174      H2176   1.087       .  S
