geometry optimzed in LAMMPS
_audit_creation_date              2020-11-30 
_audit_creation_method            'lammps2cif' 
_symmetry_space_group_name_H-M    'P1' 
_symmetry_Int_Tables_number       1 
_symmetry_cell_setting            triclinic 
loop_ 
_symmetry_equiv_pos_as_xyz 
  x,y,z 
_cell_length_a                    40.666188543473886 
_cell_length_b                    39.99706768224012 
_cell_length_c                    58.53773592741871 
_cell_angle_alpha                 89.8635844617961 
_cell_angle_beta                  89.63092429893125 
_cell_angle_gamma                 120.2757450769669 
loop_ 
_atom_site_label 
_atom_site_type_symbol 
_atom_site_fract_x 
_atom_site_fract_y 
_atom_site_fract_z 
_atom_site_charge 
O1          O  0.32470448  0.30755645  0.86327299    -0.86570
O2          O  0.31540452  0.26693442  0.82348591    -0.83250
C3          C  0.27986168  0.24857630  0.82219519     0.97260
O4          O  0.26192409  0.26624713  0.81765423    -0.83290
O5          O  0.25165818  0.33430310  0.81362100    -0.85930
C6          C  0.25150884  0.35047217  0.83238830     1.01780
O7          O  0.27431369  0.35360116  0.84763139    -0.78690
O8          O  0.33913747  0.36752811  0.86910104    -0.78880
C9          C  0.33263129  0.33506386  0.87684690     1.01730
O10         O  0.39129587  0.36911939  0.84481594    -0.86200
O11         O  0.37623024  0.33238297  0.80324872    -0.83270
C12         C  0.35925970  0.31711101  0.78493552     0.97280
O13         O  0.32323773  0.30260381  0.78358091    -0.83290
O14         O  0.31412186  0.36660301  0.78303248    -0.85900
C15         C  0.31831438  0.39852477  0.78969720     1.01750
O16         O  0.31765562  0.40548077  0.81069928    -0.78720
O17         O  0.38153634  0.41243524  0.82894231    -0.78870
C18         C  0.40376281  0.40104548  0.83493667     1.01710
Cr19       Cr  0.34980402  0.32035723  0.83303608     1.93740
Cr20       Cr  0.28939643  0.31825189  0.80140834     1.93210
Cr21       Cr  0.32760659  0.38182746  0.83824448     1.39100
O22         O  0.32203612  0.34015790  0.82403225    -1.23960
O23         O  0.01078871  0.27189649  0.67967136    -0.86210
O24         O  0.08629782  0.34358891  0.68402645    -0.83250
C25         C  0.10189301  0.36044716  0.66508392     0.97260
O26         O  0.08161457  0.36261256  0.64992745    -0.83290
O27         O  0.02787938  0.37211284  0.62879624    -0.85930
C28         C  0.00376965  0.33901894  0.62122734     1.01780
O29         O  0.48598659  0.31077578  0.63473967    -0.78690
O30         O  0.45598762  0.26852461  0.67429576    -0.78880
C31         C  0.97548415  0.25223900  0.67478340     1.01730
O32         O  0.98075183  0.30405154  0.71380869    -0.86200
O33         O  0.05048457  0.37105807  0.71470683    -0.83270
C34         C  0.07628619  0.40414599  0.70812014     0.97280
O35         O  0.08528085  0.41126465  0.68727191    -0.83290
O36         O  0.02631062  0.41422382  0.66892176    -0.85900
C37         C  0.49290294  0.40170539  0.66233935     1.01750
O38         O  0.47542936  0.36962367  0.65267108    -0.78720
O39         O  0.45555921  0.33245975  0.69417875    -0.78870
C40         C  0.45799579  0.31732945  0.71250964     1.01710
Cr41       Cr  0.03133269  0.32331606  0.69624620     1.93740
Cr42       Cr  0.05304200  0.38702148  0.65958955     1.93210
Cr43       Cr  0.47152118  0.32176462  0.66462774     1.39100
O44         O  0.01890787  0.34397097  0.67362430    -1.23960
O45         O  0.28520057  0.99223849  0.64760100    -0.86210
O46         O  0.35411674  0.07159680  0.64345141    -0.83250
C47         C  0.36700848  0.08778083  0.66267172     0.97260
O48         O  0.36488341  0.06652124  0.67895469    -0.83290
O49         O  0.37302903  0.01363997  0.70391928    -0.85930
C50         C  0.33980446  0.98654780  0.70953613     1.01780
O51         O  0.31626002  0.46700015  0.69423792    -0.78690
O52         O  0.28509454  0.43823088  0.65202861    -0.78880
C53         C  0.26703147  0.45591870  0.65206503     1.01730
O54         O  0.32472171  0.46571583  0.61620065    -0.86200
O55         O  0.38810979  0.03774872  0.61739936    -0.83270
C56         C  0.41905739  0.06459221  0.62526389     0.97280
O57         O  0.42225898  0.07405823  0.64613448    -0.83290
O58         O  0.42566611  0.01732946  0.66832569    -0.85900
C59         C  0.41395690  0.48337829  0.67486791     1.01750
O60         O  0.38044301  0.46308958  0.68206222    -0.78720
O61         O  0.35275983  0.44223980  0.63751013    -0.78870
C62         C  0.33883475  0.44360304  0.61845133     1.01710
Cr63       Cr  0.33824511  0.01603843  0.63301430     1.93740
Cr64       Cr  0.39385952  0.04069326  0.67346110     1.93210
Cr65       Cr  0.33518622  0.45597470  0.66586139     1.39100
O66         O  0.35613451  0.00452467  0.65724758    -1.23960
O67         O  0.28554961  0.24305782  0.51114056    -0.86210
O68         O  0.35266118  0.23234858  0.51680617    -0.83250
C69         C  0.37014965  0.23378684  0.49819521     0.97260
O70         O  0.37316163  0.25730074  0.48318265    -0.83290
O71         O  0.39301591  0.32591527  0.46269387    -0.85930
C72         C  0.36231435  0.31996073  0.45370998     1.01780
O73         O  0.33303750  0.31002139  0.46596048    -0.78690
O74         O  0.28757167  0.29780133  0.50453515    -0.78880
C75         C  0.26861320  0.26150726  0.50575106     1.01730
O76         O  0.31929575  0.30435462  0.54609732    -0.86200
O77         O  0.38129534  0.29574263  0.54794881    -0.83270
C78         C  0.41340021  0.30075156  0.54228090     0.97280
O79         O  0.42081190  0.29692273  0.52185490    -0.83290
O80         O  0.43144808  0.36419726  0.50467155    -0.85900
C81         C  0.42105890  0.38737352  0.49833793     1.01750
O82         O  0.39122395  0.37520169  0.48714955    -0.78720
O83         O  0.34994133  0.35882788  0.52666683    -0.78870
C84         C  0.33413905  0.34118441  0.54497614     1.01710
Cr85       Cr  0.33550128  0.27024475  0.52866253     1.93740
Cr86       Cr  0.40167471  0.31037680  0.49381398     1.93210
Cr87       Cr  0.34142147  0.33328497  0.49674271     1.39100
O88         O  0.35932063  0.30434167  0.50656066    -1.23960
O89         O  0.49101962  0.13163269  0.53388324    -0.86210
O90         O  0.45665598  0.13658863  0.49454010    -0.83250
C91         C  0.97380387  0.17284768  0.49386090     0.97260
O92         O  0.00922960  0.19142608  0.48879602    -0.83290
O93         O  0.08684305  0.20203445  0.48046264    -0.85930
C94         C  0.10484833  0.20263916  0.49839982     1.01780
O95         O  0.08628448  0.18125463  0.51472469    -0.78690
O96         O  0.03682314  0.11847251  0.53946824    -0.78880
C97         C  0.01168326  0.12560872  0.54730050     1.01730
O98         O  0.48414473  0.06263712  0.51849153    -0.86200
O99         O  0.45929000  0.07330029  0.47593182    -0.83270
C100        C  0.45981257  0.09003939  0.45736850     0.97280
O101        O  0.98015802  0.12697371  0.45596807    -0.83290
O102        O  0.05003056  0.13599030  0.45281435    -0.85900
C103        C  0.07762814  0.13134566  0.45745418     1.01750
O104        O  0.08868154  0.13314039  0.47788422    -0.78720
O105        O  0.03515623  0.07124014  0.50106483    -0.78870
C106        C  0.50314961  0.04918702  0.50966503     1.01710
Cr107      Cr  0.47594683  0.10286892  0.50497467     1.93740
Cr108      Cr  0.03107376  0.16287130  0.47152081     1.93210
Cr109      Cr  0.05954012  0.12661788  0.50751771     1.39100
O110        O  0.02249989  0.13083401  0.49447682    -1.23960
O111        O  0.31395446  0.46885951  0.30600706    -0.86210
O112        O  0.31137972  0.49847744  0.34942118    -0.83250
C113        C  0.27622997  0.47987510  0.35235674     0.97260
O114        O  0.25954133  0.44333634  0.35594993    -0.83290
O115        O  0.25254994  0.36520278  0.35811628    -0.85930
C116        C  0.24937308  0.34858192  0.33895407     1.01780
O117        O  0.27022221  0.36831510  0.32268065    -0.78690
O118        O  0.32798374  0.42371923  0.29771140    -0.78880
C119        C  0.32122626  0.45003666  0.29132194     1.01730
O120        O  0.38226116  0.47777869  0.31774196    -0.86200
O121        O  0.37625327  0.49764238  0.36267629    -0.83270
C122        C  0.36184975  0.49391268  0.38248101     0.97280
O123        O  0.32616726  0.47093813  0.38549998    -0.83290
O124        O  0.32120988  0.40116933  0.38335172    -0.85900
C125        C  0.32854387  0.37634823  0.37543347     1.01750
O126        O  0.32244851  0.36635327  0.35477900    -0.78720
O127        O  0.38074325  0.42752026  0.33238373    -0.78870
C128        C  0.39919719  0.46112682  0.32416084     1.01710
Cr129      Cr  0.34397331  0.48208538  0.33474785     1.93740
Cr130      Cr  0.29078816  0.42079150  0.36872719     1.93210
Cr131      Cr  0.32469774  0.39878433  0.32800906     1.39100
O132        O  0.31926923  0.43347154  0.34383769    -1.23960
O133        O  0.20211772  0.16884538  0.31305319    -0.86210
O134        O  0.21476059  0.10204408  0.32309752    -0.83250
C135        C  0.20231561  0.06902262  0.33302392     0.97260
O136        O  0.16847647  0.04935259  0.33905222    -0.83290
O137        O  0.13136820  0.07530726  0.36622033    -0.85930
C138        C  0.11385920  0.09296559  0.37108358     1.01780
O139        O  0.09600059  0.09843556  0.35554966    -0.78690
O140        O  0.16251889  0.16223189  0.34106959    -0.78880
C141        C  0.19211902  0.18335183  0.32948566     1.01730
O142        O  0.14859670  0.11729159  0.27640326    -0.86200
O143        O  0.16508029  0.06165604  0.28800984    -0.83270
C144        C  0.13560086  0.02876365  0.29013541     0.97280
O145        O  0.11224966  0.52091812  0.30641934    -0.83290
O146        O  0.06943588  0.03763868  0.33404954    -0.85900
C147        C  0.05622581  0.04738010  0.31771655     1.01750
O148        O  0.07473633  0.08068836  0.30903013    -0.78720
O149        O  0.13437837  0.15225524  0.29686838    -0.78870
C150        C  0.13126911  0.13600895  0.27825494     1.01710
Cr151      Cr  0.18060304  0.11243387  0.30183693     1.93740
Cr152      Cr  0.12209863  0.04955593  0.33561445     1.93210
Cr153      Cr  0.11839575  0.12131649  0.32540163     1.39100
O154        O  0.14183392  0.09476725  0.32134699    -1.23960
O155        O  0.46390045  0.16787974  0.18268076    -0.86210
O156        O  0.38714728  0.09888256  0.18920639    -0.83250
C157        C  0.36999944  0.08419324  0.17040103     0.97260
O158        O  0.38928276  0.08315355  0.15400648    -0.83290
O159        O  0.43744748  0.06842158  0.12901569    -0.85930
C160        C  0.46218855  0.10142145  0.12119782     1.01780
O161        O  0.48132188  0.12870756  0.13472494    -0.78690
O162        O  0.51663546  0.16878592  0.17334976    -0.78880
C163        C  0.49869937  0.18634721  0.17642726     1.01730
O164        O  0.49504830  0.13259912  0.21331170    -0.86200
O165        O  0.42302224  0.06748062  0.21622434    -0.83270
C166        C  0.39366638  0.03653393  0.21040408     0.97280
O167        O  0.38338960  0.53018906  0.18973612    -0.83290
O168        O  0.43789349  0.02235598  0.16738180    -0.85900
C169        C  0.47040576  0.03320497  0.15932620     1.01750
O170        O  0.48945433  0.06610310  0.15016747    -0.78720
O171        O  0.01716287  0.10388342  0.19122580    -0.78870
C172        C  0.51885380  0.12095053  0.20968658     1.01710
Cr173      Cr  0.44289284  0.11595148  0.19850618     1.93740
Cr174      Cr  0.41426995  0.05380632  0.16084129     1.93210
Cr175      Cr  0.49780990  0.11532485  0.16313963     1.39100
O176        O  0.45160896  0.09479699  0.17451459    -1.23960
O177        O  0.18760982  0.44556556  0.15313900    -0.86210
O178        O  0.11994725  0.36809078  0.14529641    -0.83250
C179        C  0.10280937  0.35046743  0.16371422     0.97260
O180        O  0.09776050  0.36928797  0.17891539    -0.83290
O181        O  0.08277906  0.41885980  0.20106627    -0.85930
C182        C  0.11424695  0.44301412  0.20996048     1.01780
O183        O  0.14296054  0.46324084  0.19740597    -0.78690
O184        O  0.18821583  0.49952737  0.15970604    -0.78880
C185        C  0.20573815  0.48112144  0.15887834     1.01730
O186        O  0.15686606  0.47694314  0.11900037    -0.86200
O187        O  0.09386201  0.40542925  0.11512304    -0.83270
C188        C  0.06154847  0.37693708  0.11986645     0.97280
O189        O  0.05188195  0.36618096  0.14037570    -0.83290
O190        O  0.04379957  0.42264039  0.16036852    -0.85900
C191        C  0.05418980  0.45545897  0.16844731     1.01750
O192        O  0.08508887  0.47323371  0.17885044    -0.78720
O193        O  0.12619478  0.49969199  0.13858801    -0.78870
C194        C  0.14270825  0.49913449  0.12037961     1.01710
Cr195      Cr  0.13866657  0.42458707  0.13495360     1.93740
Cr196      Cr  0.07198324  0.39659795  0.16937249     1.93210
Cr197      Cr  0.13433219  0.48070208  0.16788691     1.39100
O198        O  0.11490751  0.43378683  0.15713978    -1.23960
O199        O  0.18337096  0.19017416  0.01025145    -0.86210
O200        O  0.11569601  0.20079428  0.01574116    -0.83250
C201        C  0.09908520  0.19966656  0.99699178     0.97260
O202        O  0.09604014  0.17548073  0.98241170    -0.83290
O203        O  0.07789696  0.10576899  0.96344471    -0.85930
C204        C  0.10923251  0.11177512  0.95501111     1.01780
O205        O  0.13685507  0.11940869  0.96778305    -0.78690
O206        O  0.18173001  0.13510788  0.00540672    -0.78880
C207        C  0.20058397  0.17158299  0.00565750     1.01730
O208        O  0.15090411  0.13151478  0.04656178    -0.86200
O209        O  0.08736454  0.13870269  0.04814152    -0.83270
C210        C  0.05520358  0.13333398  0.04240296     0.97280
O211        O  0.04814199  0.13663443  0.02178509    -0.83290
O212        O  0.03711454  0.06963581  0.00529805    -0.85900
C213        C  0.04562444  0.04450332  0.00051846     1.01750
O214        O  0.07685586  0.05350653  0.99090376    -0.78720
O215        O  0.11928171  0.07527686  0.02952400    -0.78870
C216        C  0.13709787  0.09484190  0.04664461     1.01710
Cr217      Cr  0.13336952  0.16369547  0.02836850     1.93740
Cr218      Cr  0.06790368  0.12255140  0.99394374     1.93210
Cr219      Cr  0.12737268  0.09813218  0.99890681     1.39100
O220        O  0.10960189  0.12823975  0.00719514    -1.23960
O221        O  0.47939976  0.29625603  0.02671478    -0.86210
O222        O  0.51277634  0.29515119  0.98677190    -0.83250
C223        C  0.49431436  0.25894167  0.98534698     0.97260
O224        O  0.45898545  0.24215976  0.98046351    -0.83290
O225        O  0.38207331  0.23421252  0.97665291    -0.85930
C226        C  0.36530942  0.23124375  0.99577232     1.01780
O227        O  0.38510130  0.25082739  0.01221207    -0.78690
O228        O  0.43868210  0.31323414  0.03743788    -0.78880
C229        C  0.46483730  0.30589320  0.04238856     1.01730
O230        O  0.49063396  0.37104118  0.01483796    -0.86200
O231        O  0.01173672  0.36162380  0.97201659    -0.83270
C232        C  0.51184251  0.34697966  0.95303384     0.97280
O233        O  0.48849888  0.31073777  0.94979262    -0.83290
O234        O  0.41706516  0.30281744  0.95022586    -0.85900
C235        C  0.38998503  0.30663314  0.95775846     1.01750
O236        O  0.38103507  0.30226144  0.97883166    -0.78720
O237        O  0.43684648  0.36222677  0.00183305    -0.78870
C238        C  0.46903200  0.38404829  0.01009736     1.01710
Cr239      Cr  0.49521778  0.32920561  0.99957569     1.93740
Cr240      Cr  0.43740544  0.27369777  0.96613726     1.93210
Cr241      Cr  0.41256088  0.30641165  0.00654691     1.39100
O242        O  0.44812521  0.30353060  0.99032247    -1.23960
O243        O  0.20008150  0.98092362  0.85455502    -0.86210
O244        O  0.22182887  0.06104999  0.84232250    -0.83250
C245        C  0.21545928  0.08662395  0.83369755     0.97260
O246        O  0.18222430  0.07914453  0.82983580    -0.83290
O247        O  0.15110743  0.02409054  0.79564058    -0.85930
C248        C  0.13413174  0.99036879  0.78730552     1.01780
O249        O  0.11621319  0.46086063  0.79994444    -0.78690
O250        O  0.16993685  0.45408618  0.82295728    -0.78880
C251        C  0.19406896  0.45836281  0.83765931     1.01730
O252        O  0.14149734  0.48075998  0.88454375    -0.86200
O253        O  0.16672445  0.05647364  0.87398232    -0.83270
C254        C  0.13561379  0.05628847  0.87218727     0.97280
O255        O  0.11446084  0.04141235  0.85509432    -0.83290
O256        O  0.08152873  0.99310141  0.81903333    -0.85900
C257        C  0.06066786  0.46394218  0.83089336     1.01750
O258        O  0.07377217  0.44610198  0.84164277    -0.78720
O259        O  0.12386470  0.43063157  0.86312117    -0.78870
C260        C  0.12142319  0.44454819  0.88182541     1.01710
Cr261      Cr  0.18065671  0.01830339  0.86205092     1.93740
Cr262      Cr  0.13372032  0.03218484  0.82597716     1.93210
Cr263      Cr  0.12276337  0.45172979  0.83245229     1.39100
O264        O  0.14676483  0.00119617  0.83980359    -1.23960
C265        C  0.03814469  0.35784510  0.91296612    -0.10010
C266        C  0.04068411  0.37214614  0.93515807     0.06180
C267        C  0.07112679  0.41032678  0.93968839    -0.03780
C268        C  0.09708991  0.43265979  0.92231527    -0.08230
C269        C  0.09437713  0.41842050  0.90009788     0.05300
C270        C  0.06412956  0.38024037  0.89560350    -0.03260
Br271      Br  0.05446477  0.35661307  0.86598589    -0.02950
H272        H  0.01529450  0.32901708  0.90888652     0.09210
H273        H  0.11967940  0.46167332  0.92629191     0.07230
Br274      Br  0.08048892  0.43482372  0.96909895    -0.03380
C275        C  0.15269862  0.11061190  0.89850008    -0.10010
C276        C  0.12491654  0.07429140  0.89038143     0.06180
C277        C  0.08946620  0.05395993  0.90173727    -0.03780
C278        C  0.08317136  0.06920670  0.92165068    -0.08230
C279        C  0.11221027  0.10392217  0.93082971     0.05300
C280        C  0.14664387  0.12551144  0.91859913    -0.03260
Br281      Br  0.18693417  0.17450285  0.92921666    -0.02950
H282        H  0.17992563  0.12660532  0.88974723     0.09210
H283        H  0.05691347  0.05196212  0.93117160     0.07230
Br284      Br  0.05131822  0.00253846  0.89322263    -0.03380
C285        C  0.04160407  0.25108065  0.00822070    -0.10010
C286        C  0.51667815  0.23907018  0.98941329     0.06180
C287        C  0.52051540  0.21580522  0.97291795    -0.03780
C288        C  0.04874985  0.20545666  0.97526265    -0.08230
C289        C  0.07394579  0.21734459  0.99412669     0.05300
C290        C  0.06948772  0.24029670  0.01085960    -0.03260
Br291      Br  0.10053344  0.25866784  0.03761309    -0.02950
H292        H  0.03985323  0.26987185  0.02088619     0.09210
H293        H  0.05049046  0.18733103  0.96215352     0.07230
Br294      Br  0.48935778  0.19935468  0.94619236    -0.03380
C295        C  0.25641764  0.16669067  0.99096659    -0.10010
C296        C  0.24299184  0.18975080  0.00131452     0.06180
C297        C  0.27066373  0.22671321  0.00906604    -0.03780
C298        C  0.30974595  0.23869085  0.00739633    -0.08230
C299        C  0.32292440  0.21523284  0.99749730     0.05300
C300        C  0.29551587  0.17905059  0.98895387    -0.03260
Br301      Br  0.30999007  0.14474569  0.97542506    -0.02950
H302        H  0.23624355  0.13819610  0.98461548     0.09210
H303        H  0.33019535  0.26705750  0.01379322     0.07230
Br304      Br  0.25724773  0.26184617  0.02266783    -0.03380
C305        C  0.03504738  0.48828928  0.02208524    -0.10010
C306        C  0.02058728  0.00472213  0.00705361     0.06180
C307        C  0.48461955  0.48221613  0.99734699    -0.03780
C308        C  0.46582056  0.44224636  0.00033288    -0.08230
C309        C  0.48265669  0.42513627  0.01317836     0.05300
C310        C  0.01599542  0.44873230  0.02570204    -0.03260
Br311      Br  0.03829177  0.42956242  0.04723160    -0.02950
H312        H  0.06200883  0.00614543  0.03045670     0.09210
H313        H  0.43962325  0.42453825  0.99114464     0.07230
Br314      Br  0.46239247  0.00417304  0.97800500    -0.03380
C315        C  0.14666250  0.04144345  0.06080240    -0.10010
C316        C  0.14281945  0.07374197  0.06593578     0.06180
C317        C  0.14135164  0.08242439  0.08909819    -0.03780
C318        C  0.14287462  0.05865026  0.10631757    -0.08230
C319        C  0.14569201  0.02564785  0.10121997     0.05300
C320        C  0.14822612  0.01769984  0.07797927    -0.03260
Br321      Br  0.15113724  0.47353974  0.06815184    -0.02950
H322        H  0.14770555  0.03402642  0.04311472     0.09210
H323        H  0.14103237  0.06573319  0.12392394     0.07230
Br324      Br  0.13366791  0.12401142  0.09831220    -0.03380
C325        C  0.49614313  0.34167785  0.10324535    -0.10010
C326        C  0.03545797  0.35534469  0.10109804     0.06180
C327        C  0.04960124  0.34899764  0.08056647    -0.03780
C328        C  0.02491638  0.32980179  0.06282030    -0.08230
C329        C  0.48599380  0.31809480  0.06415789     0.05300
C330        C  0.47146171  0.32386682  0.08476982    -0.03260
Br331      Br  0.41877314  0.30833411  0.08856759    -0.02950
H332        H  0.48488357  0.34630747  0.11898918     0.09210
H333        H  0.03725018  0.32629129  0.04718796     0.07230
Br334      Br  0.10246117  0.36620008  0.07489296    -0.03380
C335        C  0.48578853  0.07843780  0.08999134    -0.10010
C336        C  0.47599001  0.10558284  0.09749809     0.06180
C337        C  0.48874171  0.14012834  0.08490234    -0.03780
C338        C  0.51287068  0.14798569  0.06593717    -0.08230
C339        C  0.02547307  0.12233876  0.05993280     0.05300
C340        C  0.01096586  0.08691362  0.07170863    -0.03260
Br341      Br  0.02654839  0.05015882  0.06443727    -0.02950
H342        H  0.97676283  0.05204700  0.09969818     0.09210
H343        H  0.52352778  0.17509120  0.05671913     0.07230
Br344      Br  0.47524438  0.17789931  0.09362382    -0.03380
C345        C  0.26130409  0.03735918  0.17783168    -0.10010
C346        C  0.24763874  0.50389320  0.16399720     0.06180
C347        C  0.27474692  0.49676776  0.15354393    -0.03780
C348        C  0.31383305  0.52353367  0.15592605    -0.08230
C349        C  0.32751172  0.05781926  0.16895916     0.05300
C350        C  0.30052745  0.06378631  0.18053659    -0.03260
Br351      Br  0.31548480  0.10859148  0.19900775    -0.02950
H352        H  0.24124410  0.04357780  0.18630719     0.09210
H353        H  0.33381965  0.51724938  0.14741260     0.07230
Br354      Br  0.26051961  0.45227666  0.13482308    -0.03380
C355        C  0.53651366  0.24297289  0.15130199    -0.10010
C356        C  0.52118644  0.22875779  0.17313657     0.06180
C357        C  0.03701941  0.25349816  0.19188825    -0.03780
C358        C  0.06596987  0.29206052  0.18848516    -0.08230
C359        C  0.08048009  0.30721108  0.16645525     0.05300
C360        C  0.06569397  0.28148670  0.14779565    -0.03260
Br361      Br  0.08367490  0.29607174  0.11710706    -0.02950
H362        H  0.52644032  0.22346485  0.13687280     0.09210
H363        H  0.07668942  0.31063098  0.20329728     0.07230
Br364      Br  0.02162065  0.23511008  0.22260652    -0.03380
C365        C  0.49186101  0.45174383  0.16349704    -0.10010
C366        C  0.03155206  0.47398724  0.16614775     0.06180
C367        C  0.04974615  0.01470510  0.16655114    -0.03780
C368        C  0.02841245  0.03218715  0.16424115    -0.08230
C369        C  0.48898907  0.01054790  0.16169431     0.05300
C370        C  0.47026288  0.46988905  0.16148260    -0.03260
Br371      Br  0.41629254  0.43828239  0.15753229    -0.02950
H372        H  0.47771426  0.42042574  0.16317603     0.09210
H373        H  0.04315303  0.06349667  0.16445326     0.07230
Br374      Br  0.10380177  0.04972993  0.16932088    -0.03380
C375        C  0.10928798  0.13014457  0.23724324    -0.10010
C376        C  0.10444254  0.13590443  0.26038978     0.06180
C377        C  0.07261278  0.14018403  0.26622071    -0.03780
C378        C  0.04536437  0.13505233  0.24971387    -0.08230
C379        C  0.04952511  0.12795536  0.22672362     0.05300
C380        C  0.08345796  0.12805245  0.22049534    -0.03260
Br381      Br  0.09932615  0.13113604  0.18929312    -0.02950
H382        H  0.13413648  0.12873334  0.23197659     0.09210
H383        H  0.02068222  0.13677939  0.25497637     0.07230
Br384      Br  0.06360414  0.15312941  0.29633700    -0.03380
C385        C  0.09188231  0.47488297  0.26525603    -0.10010
C386        C  0.12896835  0.49928653  0.27298989     0.06180
C387        C  0.15946941  0.49730174  0.26277848    -0.03780
C388        C  0.15284770  0.47396312  0.24380985    -0.08230
C389        C  0.11647084  0.45330968  0.23423642     0.05300
C390        C  0.08524932  0.45193354  0.24597834    -0.03260
Br391      Br  0.03360891  0.42401142  0.23535373    -0.02950
H392        H  0.06829287  0.47608341  0.27301745     0.09210
H393        H  0.17695243  0.47464048  0.23532891     0.07230
Br394      Br  0.21120242  0.02728155  0.27285310    -0.03380
C395        C  0.33596065  0.50444329  0.23527766    -0.10010
C396        C  0.37087417  0.50832332  0.22823889     0.06180
C397        C  0.38587458  0.48876582  0.24023841    -0.03780
C398        C  0.36695424  0.46711024  0.25958754    -0.08230
C399        C  0.33350625  0.46542822  0.26787226     0.05300
C400        C  0.31739364  0.48342749  0.25517260    -0.03260
Br401      Br  0.27060755  0.48015914  0.26444317    -0.02950
H402        H  0.32418619  0.51941557  0.22597338     0.09210
H403        H  0.38017750  0.45379059  0.26910389     0.07230
Br404      Br  0.43335858  0.49267807  0.23154681    -0.03380
C405        C  0.21599114  0.24906089  0.31309443    -0.10010
C406        C  0.20954146  0.22601344  0.33256132     0.06180
C407        C  0.21109583  0.24254597  0.35417972    -0.03780
C408        C  0.22066190  0.28161109  0.35595723    -0.08230
C409        C  0.22855762  0.30523514  0.33645266     0.05300
C410        C  0.22470037  0.28770660  0.31475843    -0.03260
Br411      Br  0.22937026  0.31407489  0.28634948    -0.02950
H412        H  0.21251407  0.23638354  0.29629947     0.09210
H413        H  0.22410439  0.29407296  0.37280459     0.07230
Br414      Br  0.20399383  0.21400098  0.38203118    -0.03380
C415        C  0.26006223  0.06597362  0.34599863    -0.10010
C416        C  0.22343497  0.04783976  0.33692986     0.06180
C417        C  0.20358014  0.50635281  0.33501989    -0.03780
C418        C  0.22049201  0.48493965  0.34129148    -0.08230
C419        C  0.25690937  0.50286847  0.35005413     0.05300
C420        C  0.27659201  0.04396623  0.35291577    -0.03260
Br421      Br  0.32531234  0.07198029  0.36753686    -0.02950
H422        H  0.27515446  0.09697335  0.34869721     0.09210
H423        H  0.20522606  0.45387038  0.33875981     0.07230
Br424      Br  0.15234556  0.47438514  0.32437790    -0.03380
C425        C  0.45943796  0.46194354  0.31887704    -0.10010
C426        C  0.43961062  0.48191147  0.32038298     0.06180
C427        C  0.45849071  0.02256105  0.31671583    -0.03780
C428        C  0.99639630  0.04200275  0.31135787    -0.08230
C429        C  0.01692114  0.02300415  0.31237864     0.05300
C430        C  0.99849614  0.48248894  0.31534300    -0.03260
Br431      Br  0.02506815  0.45422083  0.31618725    -0.02950
H432        H  0.44487928  0.43080422  0.32118079     0.09210
H433        H  0.01071737  0.07321066  0.30973076     0.07230
Br434      Br  0.43731829  0.05572909  0.32193240    -0.03380
C435        C  0.41784332  0.05516739  0.39725362    -0.10010
C436        C  0.38654935  0.01805881  0.40185024     0.06180
C437        C  0.38019226  0.50489394  0.42481069    -0.03780
C438        C  0.40416954  0.02868918  0.44229410    -0.08230
C439        C  0.43508248  0.06618903  0.43781478     0.05300
C440        C  0.44179367  0.07907056  0.41474790    -0.03260
Br441      Br  0.48423157  0.12806124  0.40545800    -0.02950
H442        H  0.42374909  0.06588091  0.37981226     0.09210
H443        H  0.39847938  0.01753242  0.45964040     0.07230
Br444      Br  0.34080254  0.45373588  0.43341585    -0.03380
C445        C  0.10100424  0.14899117  0.41854274    -0.10010
C446        C  0.09744375  0.12650501  0.43771917     0.06180
C447        C  0.10514781  0.09601632  0.43553569    -0.03780
C448        C  0.11344819  0.08689810  0.41381861    -0.08230
C449        C  0.11262210  0.10696264  0.39423479     0.05300
C450        C  0.10707147  0.13898490  0.39697141    -0.03260
Br451      Br  0.10371203  0.16925878  0.37235824    -0.02950
H452        H  0.09557914  0.17282427  0.42007491     0.09210
H453        H  0.11764064  0.06234369  0.41205370     0.07230
Br454      Br  0.10032109  0.06350392  0.46091121    -0.03380
C455        C  0.33706139  0.30616479  0.41425076    -0.10010
C456        C  0.36274365  0.33230696  0.43009696     0.06180
C457        C  0.38419898  0.37197489  0.42425484    -0.03780
C458        C  0.37381153  0.38558427  0.40541811    -0.08230
C459        C  0.34494083  0.35991895  0.39097636     0.05300
C460        C  0.32998761  0.31986907  0.39391928    -0.03260
Br461      Br  0.30150411  0.28345012  0.37077466    -0.02950
H462        H  0.32223722  0.27535411  0.41783008     0.09210
H463        H  0.38760156  0.41654007  0.40237720     0.07230
Br464      Br  0.42652430  0.40977492  0.44145304    -0.03380
C465        C  0.16000008  0.19326950  0.50637937    -0.10010
C466        C  0.14692135  0.21798192  0.49842461     0.06180
C467        C  0.17409802  0.25527952  0.49108953    -0.03780
C468        C  0.21309836  0.26771281  0.49277470    -0.08230
C469        C  0.22647487  0.24356451  0.50159273     0.05300
C470        C  0.19898177  0.20533399  0.50768358    -0.03260
Br471      Br  0.21231301  0.16829421  0.51824202    -0.02950
H472        H  0.13956661  0.16399504  0.51173358     0.09210
H473        H  0.23314042  0.29717346  0.48756231     0.07230
Br474      Br  0.15947729  0.29122639  0.48044806    -0.03380
C475        C  0.45716340  0.22339561  0.48420696    -0.10010
C476        C  0.44975723  0.19094657  0.49710805     0.06180
C477        C  0.41567502  0.17243182  0.51044654    -0.03780
C478        C  0.38948922  0.18558989  0.50988573    -0.08230
C479        C  0.39634228  0.21758324  0.49652087     0.05300
C480        C  0.43134282  0.23693452  0.48380596    -0.03260
Br481      Br  0.44815106  0.28343283  0.46606148    -0.02950
H482        H  0.98284046  0.23784285  0.47384724     0.09210
H483        H  0.36401597  0.17121831  0.52041934     0.07230
Br484      Br  0.40391030  0.13023484  0.53105863    -0.03380
C485        C  0.44591185  0.48973946  0.50328752    -0.10010
C486        C  0.48471924  0.00787946  0.50772965     0.06180
C487        C  0.50309457  0.48635597  0.51016959    -0.03780
C488        C  0.48177173  0.44628868  0.50765247    -0.08230
C489        C  0.44278750  0.42839287  0.50269667     0.05300
C490        C  0.42467619  0.45058649  0.50099617    -0.03260
Br491      Br  0.37125530  0.43149872  0.49566004    -0.02950
H492        H  0.43166379  0.50633534  0.50135398     0.09210
H493        H  0.49564007  0.42931369  0.50921022     0.07230
Br494      Br  0.05590399  0.00978046  0.51783061    -0.03380
C495        C  0.33004017  0.39796106  0.55927208    -0.10010
C496        C  0.33256278  0.36488611  0.56443845     0.06180
C497        C  0.33745535  0.35826819  0.58755837    -0.03780
C498        C  0.33944362  0.38408443  0.60464263    -0.08230
C499        C  0.33677869  0.41718129  0.59944440     0.05300
C500        C  0.33220158  0.42384671  0.57622544    -0.03260
Br501      Br  0.33134386  0.46902614  0.56591567    -0.02950
H502        H  0.32687395  0.40418740  0.54166684     0.09210
H503        H  0.34337180  0.37822317  0.62219255     0.07230
Br504      Br  0.34462639  0.31631908  0.59670284    -0.03380
C505        C  0.46200842  0.12273793  0.60216026    -0.10010
C506        C  0.45146511  0.08524605  0.60953002     0.06180
C507        C  0.46838893  0.06575061  0.59932295    -0.03780
C508        C  0.49300909  0.08245243  0.58067110    -0.08230
C509        C  0.99996828  0.11791243  0.57147399     0.05300
C510        C  0.48586118  0.13903492  0.58304961    -0.03260
Br511      Br  0.49643937  0.18894498  0.57243338    -0.02950
H512        H  0.44952394  0.13815282  0.61019654     0.09210
H513        H  0.00339749  0.06570151  0.57190202     0.07230
Br514      Br  0.45600326  0.01477519  0.60903450    -0.03380
C515        C  0.97838629  0.29857479  0.58701943    -0.10010
C516        C  0.99073291  0.33438445  0.59755269     0.06180
C517        C  0.48162071  0.36096006  0.58763462    -0.03780
C518        C  0.45754736  0.34974400  0.56885805    -0.08230
C519        C  0.44290487  0.31282897  0.55955305     0.05300
C520        C  0.45473463  0.28776059  0.56803593    -0.03260
Br521      Br  0.93611271  0.23703244  0.55611030    -0.02950
H522        H  0.98499512  0.27787493  0.59454305     0.09210
H523        H  0.44879293  0.36930520  0.56210054     0.07230
Br524      Br  0.49641390  0.41082023  0.60035421    -0.03380
C525        C  0.20093504  0.44586598  0.64993883    -0.10010
C526        C  0.22492366  0.43206258  0.65653059     0.06180
C527        C  0.20770551  0.39403391  0.66640355    -0.03780
C528        C  0.16805108  0.37163437  0.66945690    -0.08230
C529        C  0.14413426  0.38497963  0.66210852     0.05300
C530        C  0.16120595  0.42286235  0.65229628    -0.03260
Br531      Br  0.13268339  0.44642948  0.64211052    -0.02950
H532        H  0.21305303  0.47446300  0.64236832     0.09210
H533        H  0.15572149  0.34306455  0.67710734     0.07230
Br534      Br  0.23539891  0.36923617  0.67623186    -0.03380
C535        C  0.41593638  0.14418795  0.68530175    -0.10010
C536        C  0.39410560  0.13085936  0.66506839     0.06180
C537        C  0.40346983  0.15812285  0.64713700    -0.03780
C538        C  0.43266331  0.19690971  0.65000051    -0.08230
C539        C  0.45403696  0.20982424  0.67025445     0.05300
C540        C  0.44541928  0.18275769  0.68790154    -0.03260
Br541      Br  0.47151812  0.19778621  0.71651735    -0.02950
H542        H  0.41041934  0.12437724  0.69938506     0.09210
H543        H  0.43788315  0.21765740  0.63649731     0.07230
Br544      Br  0.37707208  0.14522461  0.61857385    -0.03380
C545        C  0.41573193  0.42462870  0.67026222    -0.10010
C546        C  0.43654257  0.46486560  0.67260459     0.06180
C547        C  0.47656677  0.48483044  0.67151511    -0.03780
C548        C  0.49491920  0.46372846  0.66820575    -0.08230
C549        C  0.47362578  0.42335956  0.66572392     0.05300
C550        C  0.43353592  0.40373415  0.66690142    -0.03260
Br551      Br  0.39980194  0.34849458  0.66482048    -0.02950
H552        H  0.38486452  0.40885343  0.67065909     0.09210
H553        H  0.02573605  0.47883704  0.66740039     0.07230
Br554      Br  0.00742971  0.03989268  0.67494734    -0.03380
C555        C  0.09800543  0.48051798  0.75250683    -0.10010
C556        C  0.13032109  0.48318674  0.76273278     0.06180
C557        C  0.14792027  0.46422565  0.75260874    -0.03780
C558        C  0.13128821  0.44035312  0.73369142    -0.08230
C559        C  0.09680809  0.43464479  0.72501266     0.05300
C560        C  0.08096708  0.45612140  0.73388408    -0.03260
Br561      Br  0.03419610  0.45022053  0.72258652    -0.02950
H562        H  0.08355055  0.99399828  0.76056037     0.09210
H563        H  0.14387272  0.42421737  0.72675207     0.07230
Br564      Br  0.19187425  0.46633523  0.76596938    -0.03380
C565        C  0.38285330  0.35318379  0.93357739    -0.10010
C566        C  0.36806720  0.31503233  0.94122038     0.06180
C567        C  0.33691755  0.28488767  0.92985189    -0.03780
C568        C  0.32288816  0.29278342  0.91012792    -0.08230
C569        C  0.33991980  0.33047278  0.90108381     0.05300
C570        C  0.36909502  0.36128563  0.91369649    -0.03260
Br571      Br  0.39529115  0.41431974  0.90351054    -0.02950
H572        H  0.40704756  0.37649759  0.94219484     0.09210
H573        H  0.30041266  0.26880282  0.90084488     0.07230
Br574      Br  0.31541540  0.23186221  0.93880917    -0.03380
C575        C  0.26899335  0.19208971  0.84554637    -0.10010
C576        C  0.26198501  0.20621967  0.82516751     0.06180
C577        C  0.24821010  0.18142951  0.80629765    -0.03780
C578        C  0.23991430  0.14298010  0.80833943    -0.08230
C579        C  0.24388954  0.12774242  0.82928051     0.05300
C580        C  0.25961465  0.15325807  0.84781088    -0.03260
Br581      Br  0.26535128  0.13551155  0.87715108    -0.02950
H582        H  0.28165755  0.21143214  0.85989268     0.09210
H583        H  0.22676669  0.12371995  0.79401073     0.07230
Br584      Br  0.24031221  0.19892736  0.77741134    -0.03380
C585        C  0.00681368  0.47354333  0.83764000    -0.10010
C586        C  0.02082614  0.44964895  0.83037331     0.06180
C587        C  0.99700628  0.41350423  0.82088421    -0.03780
C588        C  0.45861975  0.39997805  0.82061189    -0.08230
C589        C  0.44372614  0.42199161  0.82976510     0.05300
C590        C  0.46785372  0.45958573  0.83766968    -0.03260
Br591      Br  0.44896015  0.49067026  0.85070481    -0.02950
H592        H  0.02603264  0.00233017  0.84404463     0.09210
H593        H  0.44028137  0.37091064  0.81445293     0.07230
Br594      Br  0.01544652  0.38181424  0.80795152    -0.03380
C595        C  0.25085112  0.40738949  0.84947661    -0.10010
C596        C  0.23373612  0.37540033  0.83448046     0.06180
C597        C  0.20480335  0.37240537  0.82005665    -0.03780
C598        C  0.19357951  0.40036362  0.82101372    -0.08230
C599        C  0.21068564  0.43233332  0.83603906     0.05300
C600        C  0.24004813  0.43564566  0.85021870    -0.03260
Br601      Br  0.26822208  0.97888455  0.87011080    -0.02950
H602        H  0.27413131  0.41154081  0.86027793     0.09210
H603        H  0.17058906  0.39644934  0.81002313     0.07230
Br604      Br  0.17855345  0.33032931  0.79919118    -0.03380
C605        C  0.38024036  0.28128667  0.75883122    -0.10010
C606        C  0.38251406  0.31619949  0.76545658     0.06180
C607        C  0.41068349  0.35094886  0.75520640    -0.03780
C608        C  0.43530058  0.35046947  0.73852237    -0.08230
C609        C  0.43360578  0.31584691  0.73205298     0.05300
C610        C  0.40557850  0.28092609  0.74233875    -0.03260
Br611      Br  0.39957603  0.23207169  0.73351444    -0.02950
H612        H  0.35916099  0.25433574  0.76677196     0.09210
H613        H  0.45592652  0.37746027  0.73043404     0.07230
Br614      Br  0.41617605  0.39996936  0.76306874    -0.03380
C615        C  0.29066467  0.41967560  0.75940860    -0.10010
C616        C  0.32228914  0.42726223  0.77256097     0.06180
C617        C  0.35751493  0.46075060  0.76801053    -0.03780
C618        C  0.36193848  0.98285399  0.74844373    -0.08230
C619        C  0.33127252  0.47260207  0.73357323     0.05300
C620        C  0.29462474  0.44277035  0.74042914    -0.03260
Br621      Br  0.24900389  0.43200130  0.72475184    -0.02950
H622        H  0.26293350  0.39515312  0.76362790     0.09210
H623        H  0.39014070  0.00635819  0.74406618     0.07230
Br624      Br  0.40099502  0.97582309  0.78693629    -0.03380
O625        O  0.32470551  0.80755189  0.86326660    -0.86570
O626        O  0.31540426  0.76693174  0.82347886    -0.83250
C627        C  0.27986112  0.74857314  0.82219118     0.97260
O628        O  0.26192238  0.76624336  0.81765168    -0.83290
O629        O  0.25165458  0.83429886  0.81361858    -0.85930
C630        C  0.25150715  0.85046971  0.83238555     1.01780
O631        O  0.27431261  0.85359856  0.84762825    -0.78690
O632        O  0.33913787  0.86752297  0.86909657    -0.78880
C633        C  0.33263366  0.83505854  0.87684131     1.01730
O634        O  0.39129559  0.86911632  0.84480930    -0.86200
O635        O  0.37622757  0.83238203  0.80324150    -0.83270
C636        C  0.35925556  0.81710925  0.78492895     0.97280
O637        O  0.32323308  0.80260041  0.78357582    -0.83290
O638        O  0.31411502  0.86659811  0.78302840    -0.85900
C639        C  0.31830881  0.89852033  0.78969326     1.01750
O640        O  0.31765322  0.90547755  0.81069551    -0.78720
O641        O  0.38153461  0.91243236  0.82893737    -0.78870
C642        C  0.40376168  0.90104278  0.83493109     1.01710
Cr643      Cr  0.34980342  0.82035450  0.83302942     1.93740
Cr644      Cr  0.28939229  0.81824768  0.80140475     1.93210
Cr645      Cr  0.32760528  0.88182398  0.83824044     1.39100
O646        O  0.32203412  0.84015467  0.82402749    -1.23960
O647        O  0.01078700  0.77190065  0.67966487    -0.86210
O648        O  0.08629407  0.84359394  0.68402072    -0.83250
C649        C  0.10188952  0.86045207  0.66507820     0.97260
O650        O  0.08161165  0.86261815  0.64992161    -0.83290
O651        O  0.02787784  0.87212076  0.62878973    -0.85930
C652        C  0.00376887  0.83902767  0.62121933     1.01780
O653        O  0.48598604  0.81078277  0.63473055    -0.78690
O654        O  0.45598580  0.76852701  0.67428544    -0.78880
C655        C  0.97548299  0.75224225  0.67477584     1.01730
O656        O  0.98074637  0.80405242  0.71380093    -0.86200
O657        O  0.05047745  0.87106061  0.71470104    -0.83270
C658        C  0.07627992  0.90414884  0.70811548     0.97280
O659        O  0.08527643  0.91126820  0.68726744    -0.83290
O660        O  0.02630613  0.91422690  0.66891678    -0.85900
C661        C  0.49289869  0.90170826  0.66233377     1.01750
O662        O  0.47542613  0.86962741  0.65266443    -0.78720
O663        O  0.45555280  0.83245886  0.69417034    -0.78870
C664        C  0.45798939  0.81732890  0.71250135     1.01710
Cr665      Cr  0.03132835  0.82331950  0.69623966     1.93740
Cr666      Cr  0.05303866  0.88702634  0.65958400     1.93210
Cr667      Cr  0.47151817  0.82176759  0.66461926     1.39100
O668        O  0.01890413  0.84397438  0.67361733    -1.23960
O669        O  0.28520500  0.49223586  0.64760615    -0.86210
O670        O  0.35412121  0.57159372  0.64345300    -0.83250
C671        C  0.36701424  0.58778061  0.66267245     0.97260
O672        O  0.36489174  0.56652390  0.67895648    -0.83290
O673        O  0.37303821  0.51364509  0.70392346    -0.85930
C674        C  0.33981346  0.48655415  0.70954120     1.01780
O675        O  0.31625178  0.96699474  0.69423214    -0.78690
O676        O  0.28508966  0.93823278  0.65202039    -0.78880
C677        C  0.26702694  0.95592094  0.65205846     1.01730
O678        O  0.32471950  0.96572246  0.61619336    -0.86200
O679        O  0.38811319  0.53774275  0.61740221    -0.83270
C680        C  0.41906150  0.56458760  0.62526532     0.97280
O681        O  0.42226444  0.57405608  0.64613555    -0.83290
O682        O  0.42567272  0.51732948  0.66832922    -0.85900
C683        C  0.41394997  0.98337744  0.67486275     1.01750
O684        O  0.38043544  0.96308722  0.68205563    -0.78720
O685        O  0.35275594  0.94224359  0.63750208    -0.78870
C686        C  0.33883355  0.94361025  0.61844290     1.01710
Cr687      Cr  0.33824911  0.51603426  0.63301851     1.93740
Cr688      Cr  0.39386687  0.54069456  0.67346386     1.93210
Cr689      Cr  0.33517998  0.95597419  0.66585433     1.39100
O690        O  0.35614036  0.50452392  0.65725220    -1.23960
O691        O  0.28555505  0.74307054  0.51113075    -0.86210
O692        O  0.35266578  0.73236075  0.51679706    -0.83250
C693        C  0.37015177  0.73379420  0.49818596     0.97260
O694        O  0.37316271  0.75730512  0.48317159    -0.83290
O695        O  0.39301565  0.82591745  0.46267790    -0.85930
C696        C  0.36231420  0.81996536  0.45369467     1.01780
O697        O  0.33303871  0.81002819  0.46594618    -0.78690
O698        O  0.28757654  0.79781305  0.50452232    -0.78880
C699        C  0.26861801  0.76151906  0.50574067     1.01730
O700        O  0.31930414  0.80437270  0.54608375    -0.86200
O701        O  0.38130395  0.79576090  0.54793552    -0.83270
C702        C  0.41340795  0.80076731  0.54226771     0.97280
O703        O  0.42081767  0.79693458  0.52184177    -0.83290
O704        O  0.43145297  0.86420479  0.50465342    -0.85900
C705        C  0.42106427  0.88738101  0.49831932     1.01750
O706        O  0.39122833  0.87520907  0.48713202    -0.78720
O707        O  0.34994902  0.85884360  0.52665124    -0.78870
C708        C  0.33414825  0.84120248  0.54496157     1.01710
Cr709      Cr  0.33550796  0.77025983  0.52865091     1.93740
Cr710      Cr  0.40167742  0.81038335  0.49379932     1.93210
Cr711      Cr  0.34142609  0.83329543  0.49672782     1.39100
O712        O  0.35932521  0.80435232  0.50654676    -1.23960
O713        O  0.49102683  0.63163811  0.53388574    -0.86210
O714        O  0.45665703  0.63659442  0.49454566    -0.83250
C715        C  0.97380582  0.67285335  0.49386305     0.97260
O716        O  0.00923128  0.69142963  0.48879721    -0.83290
O717        O  0.08684131  0.70203122  0.48045910    -0.85930
C718        C  0.10484998  0.70263543  0.49839453     1.01780
O719        O  0.08629015  0.68125015  0.51472014    -0.78690
O720        O  0.03682697  0.61847176  0.53946692    -0.78880
C721        C  0.01168961  0.62561029  0.54730140     1.01730
O722        O  0.48414120  0.56263761  0.51849362    -0.86200
O723        O  0.45928351  0.57330256  0.47593661    -0.83270
C724        C  0.45980504  0.59004138  0.45737349     0.97280
O725        O  0.98015083  0.62697529  0.45597238    -0.83290
O726        O  0.05002038  0.63598645  0.45281131    -0.85900
C727        C  0.07761564  0.63133635  0.45744821     1.01750
O728        O  0.08867222  0.63313020  0.47787760    -0.78720
O729        O  0.03514691  0.57123399  0.50106258    -0.78870
C730        C  0.50314303  0.54918402  0.50966706     1.01710
Cr731      Cr  0.47594661  0.60287257  0.50497813     1.93740
Cr732      Cr  0.03106996  0.66287074  0.47152075     1.93210
Cr733      Cr  0.05953787  0.62661299  0.50751409     1.39100
O734        O  0.02249799  0.63083389  0.49447688    -1.23960
O735        O  0.31389486  0.96886618  0.30601360    -0.86210
O736        O  0.31134123  0.99847744  0.34943478    -0.83250
C737        C  0.27619113  0.97987001  0.35236992     0.97260
O738        O  0.25950876  0.94333154  0.35596329    -0.83290
O739        O  0.25252875  0.86520060  0.35812750    -0.85930
C740        C  0.24934274  0.84857986  0.33896418     1.01780
O741        O  0.27017641  0.86831770  0.32268723    -0.78690
O742        O  0.32791509  0.92372387  0.29770595    -0.78880
C743        C  0.32115602  0.95004321  0.29132259     1.01730
O744        O  0.38220923  0.97778969  0.31772671    -0.86200
O745        O  0.37623043  0.99765072  0.36266833    -0.83270
C746        C  0.36183719  0.99391888  0.38247668     0.97280
O747        O  0.32615543  0.97094445  0.38550073    -0.83290
O748        O  0.32120347  0.90117831  0.38334643    -0.85900
C749        C  0.32853645  0.87635926  0.37542321     1.01750
O750        O  0.32243346  0.86636599  0.35476833    -0.78720
O751        O  0.38070498  0.92753157  0.33235742    -0.78870
C752        C  0.39915095  0.96113580  0.32413035     1.01710
Cr753      Cr  0.34393100  0.98209164  0.33474742     1.93740
Cr754      Cr  0.29076880  0.92079437  0.36873210     1.93210
Cr755      Cr  0.32465609  0.89879152  0.32800078     1.39100
O756        O  0.31923616  0.93347697  0.34383666    -1.23960
O757        O  0.20215008  0.66885844  0.31306058    -0.86210
O758        O  0.21481037  0.60206421  0.32310027    -0.83250
C759        C  0.20236728  0.56904421  0.33302800     0.97260
O760        O  0.16853015  0.54937516  0.33905935    -0.83290
O761        O  0.13139553  0.57530858  0.36621931    -0.85930
C762        C  0.11387357  0.59295545  0.37107856     1.01780
O763        O  0.09601702  0.59841862  0.35554043    -0.78690
O764        O  0.16253467  0.66222775  0.34107101    -0.78880
C765        C  0.19213788  0.68335636  0.32949159     1.01730
O766        O  0.14864900  0.61730461  0.27640142    -0.86200
O767        O  0.16514585  0.56167769  0.28800709    -0.83270
C768        C  0.13566978  0.52878207  0.29013121     0.97280
O769        O  0.11218158  0.02090706  0.30642285    -0.83290
O770        O  0.06948151  0.53762733  0.33403751    -0.85900
C771        C  0.05626786  0.54736828  0.31770627     1.01750
O772        O  0.07477612  0.58067527  0.30901762    -0.78720
O773        O  0.13441465  0.65225570  0.29686599    -0.78870
C774        C  0.13131465  0.63601519  0.27825182     1.01710
Cr775      Cr  0.18065225  0.61245049  0.30183859     1.93740
Cr776      Cr  0.12214733  0.54956197  0.33561198     1.93210
Cr777      Cr  0.11842415  0.62130871  0.32539577     1.39100
O778        O  0.14187634  0.59477241  0.32134498    -1.23960
O779        O  0.46392384  0.66786661  0.18268496    -0.86210
O780        O  0.38718612  0.59885454  0.18921400    -0.83250
C781        C  0.37003640  0.58416856  0.17040868     0.97260
O782        O  0.38931791  0.58313598  0.15401103    -0.83290
O783        O  0.43748808  0.56842592  0.12901209    -0.85930
C784        C  0.46222092  0.60142854  0.12119391     1.01780
O785        O  0.48135273  0.62871586  0.13472061    -0.78690
O786        O  0.51666656  0.66879482  0.17334508    -0.78880
C787        C  0.49872050  0.68634465  0.17642809     1.01730
O788        O  0.49510058  0.63260153  0.21330512    -0.86200
O789        O  0.42309237  0.56746863  0.21621952    -0.83270
C790        C  0.39373917  0.53651820  0.21040173     0.97280
O791        O  0.38332776  0.03020290  0.18973658    -0.83290
O792        O  0.43796116  0.52236607  0.16737005    -0.85900
C793        C  0.47047171  0.53322255  0.15930894     1.01750
O794        O  0.48951535  0.56612482  0.15015429    -0.78720
O795        O  0.01722480  0.60390261  0.19121277    -0.78870
C796        C  0.51891108  0.62096076  0.20967642     1.01710
Cr797      Cr  0.44293847  0.61593948  0.19850626     1.93740
Cr798      Cr  0.41432097  0.55380225  0.16083854     1.93210
Cr799      Cr  0.49785645  0.61533870  0.16313100     1.39100
O800        O  0.45165714  0.59479655  0.17451036    -1.23960
O801        O  0.18756996  0.94557763  0.15315144    -0.86210
O802        O  0.11991655  0.86810159  0.14530604    -0.83250
C803        C  0.10277678  0.85047368  0.16372227     0.97260
O804        O  0.09771422  0.86928599  0.17892270    -0.83290
O805        O  0.08271874  0.91884570  0.20107416    -0.85930
C806        C  0.11418489  0.94299622  0.20997127     1.01780
O807        O  0.14290040  0.96322852  0.19741918    -0.78690
O808        O  0.18816734  0.99953339  0.15972631    -0.78880
C809        C  0.20569503  0.98113317  0.15889124     1.01730
O810        O  0.15682506  0.97695246  0.11901616    -0.86200
O811        O  0.09382741  0.90543608  0.11513179    -0.83270
C812        C  0.06151563  0.87693893  0.11987192     0.97280
O813        O  0.05184397  0.86617988  0.14038012    -0.83290
O814        O  0.04374710  0.92263241  0.16037477    -0.85900
C815        C  0.05413178  0.95544688  0.16845847     1.01750
O816        O  0.08503068  0.97322244  0.17886191    -0.78720
O817        O  0.12614779  0.99969555  0.13860299    -0.78870
C818        C  0.14266485  0.99914122  0.12039529     1.01710
Cr819      Cr  0.13862824  0.92459591  0.13496538     1.93740
Cr820      Cr  0.07193449  0.89659266  0.16937866     1.93210
Cr821      Cr  0.13427894  0.98069872  0.16790162     1.39100
O822        O  0.11486093  0.93378711  0.15715048    -1.23960
O823        O  0.18339076  0.69017158  0.01024446    -0.86210
O824        O  0.11572110  0.70079873  0.01573828    -0.83250
C825        C  0.09911115  0.69967339  0.99698884     0.97260
O826        O  0.09606606  0.67548832  0.98240835    -0.83290
O827        O  0.07790896  0.60577462  0.96344087    -0.85930
C828        C  0.10924285  0.61178023  0.95500554     1.01780
O829        O  0.13686612  0.61941009  0.96777586    -0.78690
O830        O  0.18174523  0.63510364  0.00539642    -0.78880
C831        C  0.20060108  0.67157866  0.00564844     1.01730
O832        O  0.15092584  0.63151027  0.04655402    -0.86200
O833        O  0.08738892  0.63870474  0.04813731    -0.83270
C834        C  0.05522977  0.63334188  0.04239958     0.97280
O835        O  0.04816852  0.63664630  0.02178243    -0.83290
O836        O  0.03713027  0.56964455  0.00529434    -0.85900
C837        C  0.04563661  0.54450955  0.00051426     1.01750
O838        O  0.07686597  0.55350905  0.99089788    -0.78720
O839        O  0.11929926  0.57527363  0.02951545    -0.78870
C840        C  0.13711996  0.59483716  0.04663545     1.01710
Cr841      Cr  0.13339211  0.66369550  0.02836334     1.93740
Cr842      Cr  0.06792340  0.62255938  0.99394024     1.93210
Cr843      Cr  0.12738640  0.59813122  0.99889890     1.39100
O844        O  0.10962026  0.62824138  0.00719000    -1.23960
O845        O  0.47940671  0.79625258  0.02671290    -0.86210
O846        O  0.51279119  0.79514956  0.98677262    -0.83250
C847        C  0.49433203  0.75894014  0.98534586     0.97260
O848        O  0.45900366  0.74215612  0.98046040    -0.83290
O849        O  0.38208908  0.73420286  0.97664497    -0.85930
C850        C  0.36532364  0.73123365  0.99576375     1.01780
O851        O  0.38511388  0.75081785  0.01220362    -0.78690
O852        O  0.43868267  0.81322565  0.03743065    -0.78880
C853        C  0.46483748  0.80588622  0.04238456     1.01730
O854        O  0.49063693  0.87103517  0.01483318    -0.86200
O855        O  0.01174802  0.86161889  0.97201412    -0.83270
C856        C  0.51185674  0.84697514  0.95303178     0.97280
O857        O  0.48851601  0.81073296  0.94979016    -0.83290
O858        O  0.41708051  0.80280807  0.95021772    -0.85900
C859        C  0.38999840  0.80662221  0.95774844     1.01750
O860        O  0.38104503  0.80224873  0.97882106    -0.78720
O861        O  0.43684996  0.86221686  0.00182455    -0.78870
C862        C  0.46903352  0.88403992  0.01009102     1.01710
Cr863      Cr  0.49522681  0.82920133  0.99957327     1.93740
Cr864      Cr  0.43742168  0.77369096  0.96613193     1.93210
Cr865      Cr  0.41256757  0.80640164  0.00653831     1.39100
O866        O  0.44813615  0.80352372  0.99031694    -1.23960
O867        O  0.20007748  0.48092072  0.85455845    -0.86210
O868        O  0.22183007  0.56104813  0.84232492    -0.83250
C869        C  0.21546292  0.58662319  0.83369900     0.97260
O870        O  0.18222889  0.57914539  0.82983591    -0.83290
O871        O  0.15111605  0.52409219  0.79564090    -0.85930
C872        C  0.13413949  0.49037066  0.78730590     1.01780
O873        O  0.11620925  0.96085866  0.79994441    -0.78690
O874        O  0.16993974  0.95408962  0.82295410    -0.78880
C875        C  0.19407248  0.95836589  0.83765567     1.01730
O876        O  0.14150313  0.98075991  0.88454279    -0.86200
O877        O  0.16672305  0.55647411  0.87398123    -0.83270
C878        C  0.13561418  0.55629185  0.87218366     0.97280
O879        O  0.11446241  0.54141577  0.85509038    -0.83290
O880        O  0.08153281  0.49310567  0.81902904    -0.85900
C881        C  0.06066618  0.96393712  0.83089754     1.01750
O882        O  0.07377282  0.94609695  0.84164485    -0.78720
O883        O  0.12387284  0.93063264  0.86311958    -0.78870
C884        C  0.12143129  0.94454813  0.88182416     1.01710
Cr885      Cr  0.18065437  0.51830233  0.86205241     1.93740
Cr886      Cr  0.13372465  0.53218705  0.82597537     1.93210
Cr887      Cr  0.12276518  0.95172929  0.83245163     1.39100
O888        O  0.14676496  0.50119662  0.83980386    -1.23960
C889        C  0.03815847  0.85784186  0.91296460    -0.10010
C890        C  0.04069768  0.87214255  0.93515655     0.06180
C891        C  0.07113865  0.91032371  0.93968718    -0.03780
C892        C  0.09710052  0.93265797  0.92231406    -0.08230
C893        C  0.09438765  0.91841916  0.90009656     0.05300
C894        C  0.06414194  0.88023832  0.89560196    -0.03260
Br895      Br  0.05447740  0.85661149  0.86598416    -0.02950
H896        H  0.01530931  0.82901332  0.90888494     0.09210
H897        H  0.11968884  0.96167207  0.92629071     0.07230
Br898      Br  0.08049983  0.93481957  0.96909803    -0.03380
C899        C  0.15270186  0.61061837  0.89849316    -0.10010
C900        C  0.12491785  0.57429817  0.89037541     0.06180
C901        C  0.08946744  0.55396892  0.90173112    -0.03780
C902        C  0.08317518  0.56921658  0.92164471    -0.08230
C903        C  0.11221693  0.60393016  0.93082369     0.05300
C904        C  0.14664974  0.62551860  0.91859248    -0.03260
Br905      Br  0.18694300  0.67450818  0.92921019    -0.02950
H906        H  0.17992871  0.62660999  0.88973994     0.09210
H907        H  0.05691754  0.55197326  0.93116611     0.07230
Br908      Br  0.05131640  0.50254858  0.89321656    -0.03380
C909        C  0.04162476  0.75108221  0.00821918    -0.10010
C910        C  0.51669877  0.73907130  0.98941169     0.06180
C911        C  0.52053812  0.71580822  0.97291590    -0.03780
C912        C  0.04877428  0.70546191  0.97526025    -0.08230
C913        C  0.07397002  0.71734992  0.99412445     0.05300
C914        C  0.06951005  0.74030017  0.01085777    -0.03260
Br915      Br  0.10055555  0.75867115  0.03761130    -0.02950
H916        H  0.03987250  0.76987207  0.02088507     0.09210
H917        H  0.05051629  0.68733778  0.96215065     0.07230
Br918      Br  0.48938111  0.69935726  0.94619005    -0.03380
C919        C  0.25643255  0.66668308  0.99095742    -0.10010
C920        C  0.24300812  0.68974470  0.00130490     0.06180
C921        C  0.27068054  0.72670745  0.00905548    -0.03780
C922        C  0.30976210  0.73868378  0.00738579    -0.08230
C923        C  0.32293928  0.71522428  0.99748749     0.05300
C924        C  0.29553037  0.67904191  0.98894460    -0.03260
Br925      Br  0.31000350  0.64473543  0.97541687    -0.02950
H926        H  0.23625779  0.63818825  0.98460696     0.09210
H927        H  0.33021203  0.76705050  0.01378233     0.07230
Br928      Br  0.25726666  0.76184306  0.02265587    -0.03380
C929        C  0.03503653  0.98828166  0.02208750    -0.10010
C930        C  0.02059806  0.50472987  0.00705146     0.06180
C931        C  0.48461207  0.98220647  0.99734544    -0.03780
C932        C  0.46581718  0.94223610  0.00032800    -0.08230
C933        C  0.48265400  0.92512695  0.01317369     0.05300
C934        C  0.01598880  0.94872373  0.02570064    -0.03260
Br935      Br  0.03828579  0.92955428  0.04723000    -0.02950
H936        H  0.06202223  0.50615192  0.03045196     0.09210
H937        H  0.43962280  0.92452737  0.99113724     0.07230
Br938      Br  0.46240010  0.50418356  0.97800709    -0.03380
C939        C  0.14668093  0.54143165  0.06078776    -0.10010
C940        C  0.14284712  0.57373521  0.06592398     0.06180
C941        C  0.14139628  0.58242273  0.08908741    -0.03780
C942        C  0.14292626  0.55864933  0.10630474    -0.08230
C943        C  0.14573336  0.52564171  0.10120463     0.05300
C944        C  0.14825121  0.51768848  0.07796289    -0.03260
Br945      Br  0.15112626  0.97355775  0.06817054    -0.02950
H946        H  0.14771158  0.53401041  0.04309945     0.09210
H947        H  0.14109714  0.56573687  0.12391196     0.07230
Br948      Br  0.13372612  0.62401614  0.09830672    -0.03380
C949        C  0.49611664  0.84166695  0.10324384    -0.10010
C950        C  0.03543385  0.85534375  0.10110103     0.06180
C951        C  0.04958763  0.84900234  0.08057193    -0.03780
C952        C  0.02491035  0.82980253  0.06282343    -0.08230
C953        C  0.48598552  0.81808686  0.06415628     0.05300
C954        C  0.47144280  0.82385229  0.08476585    -0.03260
Br955      Br  0.41874965  0.80830571  0.08855701    -0.02950
H956        H  0.48484913  0.84629162  0.11898593     0.09210
H957        H  0.03725156  0.82629679  0.04719286     0.07230
Br958      Br  0.10245217  0.86621896  0.07490466    -0.03380
C959        C  0.48581122  0.57844378  0.08998421    -0.10010
C960        C  0.47601827  0.60559157  0.09749362     0.06180
C961        C  0.48877326  0.64013965  0.08490010    -0.03780
C962        C  0.51290193  0.64799724  0.06593499    -0.08230
C963        C  0.02550033  0.62234782  0.05992904     0.05300
C964        C  0.01098869  0.58691999  0.07170203    -0.03260
Br965      Br  0.02656641  0.55016231  0.06442848    -0.02950
H966        H  0.97678243  0.55205057  0.09968916     0.09210
H967        H  0.52356212  0.67510453  0.05671845     0.07230
Br968      Br  0.47528156  0.67791359  0.09362458    -0.03380
C969        C  0.26134210  0.53735415  0.17781722    -0.10010
C970        C  0.24759849  0.00391052  0.16400096     0.06180
C971        C  0.27470528  0.99680520  0.15352677    -0.03780
C972        C  0.31379143  0.02357571  0.15590289    -0.08230
C973        C  0.32755038  0.55779107  0.16896835     0.05300
C974        C  0.30056472  0.56377655  0.18052807    -0.03260
Br975      Br  0.31552165  0.60860256  0.19897959    -0.02950
H976        H  0.24128149  0.54358727  0.18627855     0.09210
H977        H  0.33377539  0.01730372  0.14737477     0.07230
Br978      Br  0.26047425  0.95233644  0.13478452    -0.03380
C979        C  0.53652208  0.74297573  0.15130604    -0.10010
C980        C  0.52119344  0.72875526  0.17313948     0.06180
C981        C  0.03701230  0.75349559  0.19189237    -0.03780
C982        C  0.06595197  0.79206271  0.18849131    -0.08230
C983        C  0.08046335  0.80721781  0.16646234     0.05300
C984        C  0.06569082  0.78149445  0.14780168    -0.03260
Br985      Br  0.08367366  0.79608765  0.11711405    -0.02950
H986        H  0.52645889  0.72346862  0.13687623     0.09210
H987        H  0.07666139  0.81063300  0.20330404     0.07230
Br988      Br  0.02160923  0.73510230  0.22260943    -0.03380
C989        C  0.49179615  0.95172558  0.16351968    -0.10010
C990        C  0.03148844  0.97397078  0.16616558     0.06180
C991        C  0.04981274  0.51472199  0.16652941    -0.03780
C992        C  0.02848153  0.53220611  0.16421386    -0.08230
C993        C  0.48905788  0.51056745  0.16166781     0.05300
C994        C  0.47019535  0.96986939  0.16150968    -0.03260
Br995      Br  0.41622366  0.93826146  0.15756617    -0.02950
H996        H  0.47765106  0.92040765  0.16319795     0.09210
H997        H  0.04322302  0.56351581  0.16442502     0.07230
Br998      Br  0.10386796  0.54974331  0.16930505    -0.03380
C999        C  0.10934234  0.63015408  0.23723807    -0.10010
C1000       C  0.10449053  0.63590891  0.26038454     0.06180
C1001       C  0.07265637  0.64018184  0.26621370    -0.03780
C1002       C  0.04541248  0.63505289  0.24970475    -0.08230
C1003       C  0.04957994  0.62796254  0.22671440     0.05300
C1004       C  0.08351458  0.62806156  0.22048828    -0.03260
Br1005     Br  0.09938598  0.63114245  0.18928701    -0.02950
H1006       H  0.13419315  0.62874581  0.23197318     0.09210
H1007       H  0.02072749  0.63677579  0.25496596     0.07230
Br1008     Br  0.06363263  0.65311056  0.29633085    -0.03380
C1009       C  0.09181227  0.97484452  0.26527070    -0.10010
C1010       C  0.12889965  0.99926318  0.27299807     0.06180
C1011       C  0.15940402  0.99728692  0.26278466    -0.03780
C1012       C  0.15278372  0.97394325  0.24381943    -0.08230
C1013       C  0.11640599  0.95328145  0.23424860     0.05300
C1014       C  0.08518139  0.95189316  0.24599393    -0.03260
Br1015     Br  0.03353827  0.92394941  0.23537547    -0.02950
H1016       H  0.06821942  0.97603415  0.27303602     0.09210
H1017       H  0.17689066  0.97462781  0.23533675     0.07230
Br1018     Br  0.21126380  0.52727319  0.27285742    -0.03380
C1019       C  0.33591798  0.00453438  0.23530815    -0.10010
C1020       C  0.37078740  0.00834062  0.22823896     0.06180
C1021       C  0.38573468  0.98870043  0.24020329    -0.03780
C1022       C  0.36681189  0.96703947  0.25955097    -0.08230
C1023       C  0.33341395  0.96543069  0.26786858     0.05300
C1024       C  0.31734788  0.98350905  0.25519993    -0.03260
Br1025     Br  0.27062164  0.98033806  0.26450862    -0.02950
H1026       H  0.32418198  0.01956735  0.22602936     0.09210
H1027       H  0.38000183  0.95365964  0.26904160     0.07230
Br1028     Br  0.43315655  0.99251072  0.23146735    -0.03380
C1029       C  0.21599138  0.74906439  0.31310332    -0.10010
C1030       C  0.20954636  0.72601674  0.33256943     0.06180
C1031       C  0.21108894  0.74254449  0.35418803    -0.03780
C1032       C  0.22064510  0.78160710  0.35596656    -0.08230
C1033       C  0.22853804  0.80523219  0.33646265     0.05300
C1034       C  0.22468654  0.78770572  0.31476809    -0.03260
Br1035     Br  0.22934341  0.81406905  0.28635908    -0.02950
H1036       H  0.21252036  0.73638958  0.29630804     0.09210
H1037       H  0.22408092  0.79406630  0.37281420     0.07230
Br1038     Br  0.20398484  0.71399759  0.38203888    -0.03380
C1039       C  0.26011641  0.56598950  0.34599072    -0.10010
C1040       C  0.22348409  0.54785808  0.33692966     0.06180
C1041       C  0.20353668  0.00633515  0.33501853    -0.03780
C1042       C  0.22045006  0.98492497  0.34129513    -0.08230
C1043       C  0.25686323  0.00285669  0.35006501     0.05300
C1044       C  0.27664531  0.54397889  0.35290264    -0.03260
Br1045     Br  0.32537489  0.57199098  0.36751370    -0.02950
H1046       H  0.27521378  0.59698979  0.34868731     0.09210
H1047       H  0.20518925  0.95385625  0.33876142     0.07230
Br1048     Br  0.15230808  0.97436657  0.32436768    -0.03380
C1049       C  0.45939414  0.96195093  0.31886268    -0.10010
C1050       C  0.43956210  0.98191762  0.32033730     0.06180
C1051       C  0.45853834  0.52255890  0.31678311    -0.03780
C1052       C  0.99643522  0.54200390  0.31140330    -0.08230
C1053       C  0.01695789  0.52299993  0.31238263     0.05300
C1054       C  0.99845695  0.98249513  0.31534885    -0.03260
Br1055     Br  0.02502778  0.95422746  0.31623378    -0.02950
H1056       H  0.44483616  0.93081466  0.32118163     0.09210
H1057       H  0.01075662  0.57321412  0.30979097     0.07230
Br1058     Br  0.43736900  0.55571621  0.32204823    -0.03380
C1059       C  0.41783332  0.55517265  0.39726013    -0.10010
C1060       C  0.38655203  0.51805621  0.40185551     0.06180
C1061       C  0.38018511  0.00490066  0.42480659    -0.03780
C1062       C  0.40417264  0.52868474  0.44229858    -0.08230
C1063       C  0.43507549  0.56619109  0.43782030     0.05300
C1064       C  0.44177860  0.57907880  0.41475459    -0.03260
Br1065     Br  0.48419693  0.62808360  0.40546545    -0.02950
H1066       H  0.42373282  0.56588995  0.37981951     0.09210
H1067       H  0.39848793  0.51752431  0.45964407     0.07230
Br1068     Br  0.34078263  0.95375014  0.43341475    -0.03380
C1069       C  0.10097356  0.64896472  0.41853080    -0.10010
C1070       C  0.09742417  0.62648914  0.43771057     0.06180
C1071       C  0.10514415  0.59601048  0.43553111    -0.03780
C1072       C  0.11345169  0.58689263  0.41381554    -0.08230
C1073       C  0.11262044  0.60694885  0.39422892     0.05300
C1074       C  0.10705258  0.63896096  0.39696138    -0.03260
Br1075     Br  0.10369332  0.66922869  0.37234440    -0.02950
H1076       H  0.09553790  0.67279117  0.42005919     0.09210
H1077       H  0.11765749  0.56234617  0.41205416     0.07230
Br1078     Br  0.10033413  0.56351193  0.46091062    -0.03380
C1079       C  0.33705763  0.80617196  0.41423536    -0.10010
C1080       C  0.36274250  0.83231245  0.43008134     0.06180
C1081       C  0.38419970  0.87198029  0.42423886    -0.03780
C1082       C  0.37381137  0.88559169  0.40540318    -0.08230
C1083       C  0.34493835  0.85992827  0.39096190     0.05300
C1084       C  0.32998351  0.81987797  0.39390443    -0.03260
Br1085     Br  0.30149900  0.78346083  0.37075932    -0.02950
H1086       H  0.32223198  0.77536114  0.41781430     0.09210
H1087       H  0.38760219  0.91654774  0.40236305     0.07230
Br1088     Br  0.42652969  0.90977770  0.44143500    -0.03380
C1089       C  0.16000632  0.69326982  0.50636432    -0.10010
C1090       C  0.14692342  0.71798262  0.49841702     0.06180
C1091       C  0.17409669  0.75528616  0.49108924    -0.03780
C1092       C  0.21309807  0.76772417  0.49277411    -0.08230
C1093       C  0.22647886  0.74357479  0.50158453     0.05300
C1094       C  0.19898907  0.70533910  0.50766809    -0.03260
Br1095     Br  0.21232573  0.66829732  0.51821486    -0.02950
H1096       H  0.13957530  0.66399143  0.51171325     0.09210
H1097       H  0.23313716  0.79718887  0.48756741     0.07230
Br1098     Br  0.15946922  0.79123343  0.48045849    -0.03380
C1099       C  0.45716418  0.72339818  0.48420150    -0.10010
C1100       C  0.44975947  0.69095356  0.49710683     0.06180
C1101       C  0.41567734  0.67244195  0.51044550    -0.03780
C1102       C  0.38949091  0.68559911  0.50988144    -0.08230
C1103       C  0.39634327  0.71758889  0.49651322     0.05300
C1104       C  0.43134289  0.73693629  0.48379723    -0.03260
Br1105     Br  0.44814842  0.78342797  0.46604661    -0.02950
H1106       H  0.98284057  0.73784236  0.47384099     0.09210
H1107       H  0.36401826  0.67123045  0.52041573     0.07230
Br1108     Br  0.40391442  0.63025189  0.53106294    -0.03380
C1109       C  0.44592102  0.98974741  0.50327189    -0.10010
C1110       C  0.48471249  0.50787503  0.50773841     0.06180
C1111       C  0.50309910  0.98635849  0.51016120    -0.03780
C1112       C  0.48177612  0.94629252  0.50763874    -0.08230
C1113       C  0.44279396  0.92840001  0.50267767     0.05300
C1114       C  0.42468495  0.95059558  0.50097555    -0.03260
Br1115     Br  0.37126619  0.93151192  0.49563363    -0.02950
H1116       H  0.43167481  0.00634501  0.50133818     0.09210
H1117       H  0.49564243  0.92931578  0.50919791     0.07230
Br1118     Br  0.05590344  0.50978298  0.51783004    -0.03380
C1119       C  0.33006134  0.89798662  0.55925926    -0.10010
C1120       C  0.33257442  0.86490565  0.56442445     0.06180
C1121       C  0.33745524  0.85827922  0.58754503    -0.03780
C1122       C  0.33943988  0.88409173  0.60463084    -0.08230
C1123       C  0.33678235  0.91719320  0.59943399     0.05300
C1124       C  0.33221839  0.92386817  0.57621450    -0.03260
Br1125     Br  0.33137321  0.96905550  0.56590753    -0.02950
H1126       H  0.32690494  0.90422033  0.54165381     0.09210
H1127       H  0.34335870  0.87822345  0.62218110     0.07230
Br1128     Br  0.34461451  0.81632249  0.59668929    -0.03380
C1129       C  0.46201436  0.62273450  0.60216237    -0.10010
C1130       C  0.45146835  0.58524095  0.60953023     0.06180
C1131       C  0.46839079  0.56574527  0.59932159    -0.03780
C1132       C  0.49301228  0.58244885  0.58067026    -0.08230
C1133       C  0.99997446  0.61791119  0.57147509     0.05300
C1134       C  0.48586830  0.63903331  0.58305226    -0.03260
Br1135     Br  0.49644858  0.68894550  0.57243871    -0.02950
H1136       H  0.44953128  0.63814980  0.61019985     0.09210
H1137       H  0.00339945  0.56569787  0.57190004     0.07230
Br1138     Br  0.45600295  0.51476826  0.60903106    -0.03380
C1139       C  0.97839140  0.79858893  0.58700853    -0.10010
C1140       C  0.99073361  0.83439583  0.59754414     0.06180
C1141       C  0.48162037  0.86097131  0.58762686    -0.03780
C1142       C  0.45755066  0.84975751  0.56884840    -0.08230
C1143       C  0.44291278  0.81284491  0.55954046     0.05300
C1144       C  0.45474379  0.78777721  0.56802312    -0.03260
Br1145     Br  0.93612846  0.73705199  0.55609509    -0.02950
H1146       H  0.98500093  0.77788911  0.59453143     0.09210
H1147       H  0.44879510  0.86931831  0.56209173     0.07230
Br1148     Br  0.49640742  0.91082778  0.60034973    -0.03380
C1149       C  0.20093148  0.94586999  0.64993371    -0.10010
C1150       C  0.22491947  0.93206522  0.65652428     0.06180
C1151       C  0.20770106  0.89403598  0.66639637    -0.03780
C1152       C  0.16804675  0.87163716  0.66945017    -0.08230
C1153       C  0.14413054  0.88498385  0.66210292     0.05300
C1154       C  0.16120254  0.92286706  0.65229144    -0.03260
Br1155     Br  0.13268059  0.94643560  0.64210692    -0.02950
H1156       H  0.21304984  0.97446750  0.64236383     0.09210
H1157       H  0.15571674  0.84306679  0.67709991     0.07230
Br1158     Br  0.23539394  0.86923662  0.67622269    -0.03380
C1159       C  0.41594062  0.64419251  0.68529989    -0.10010
C1160       C  0.39410914  0.63085982  0.66506702     0.06180
C1161       C  0.40347096  0.65812025  0.64713411    -0.03780
C1162       C  0.43266279  0.69690825  0.64999574    -0.08230
C1163       C  0.45403719  0.70982684  0.67024919     0.05300
C1164       C  0.44542205  0.68276333  0.68789775    -0.03260
Br1165     Br  0.47152226  0.69779735  0.71651299    -0.02950
H1166       H  0.41042541  0.62438421  0.69938428     0.09210
H1167       H  0.43788088  0.71765354  0.63649135     0.07230
Br1168     Br  0.37707249  0.64521619  0.61857116    -0.03380
C1169       C  0.41572626  0.92462905  0.67025560    -0.10010
C1170       C  0.43653629  0.96486571  0.67259932     0.06180
C1171       C  0.47656055  0.98483124  0.67151115    -0.03780
C1172       C  0.49491368  0.96373007  0.66820169    -0.08230
C1173       C  0.47362086  0.92336143  0.66571858     0.05300
C1174       C  0.43353095  0.90373530  0.66689485    -0.03260
Br1175     Br  0.39979766  0.84849578  0.66481221    -0.02950
H1176       H  0.38485883  0.90885330  0.67065142     0.09210
H1177       H  0.02573065  0.97883913  0.66739727     0.07230
Br1178     Br  0.00743680  0.53989215  0.67494942    -0.03380
C1179       C  0.09799468  0.98051442  0.75250666    -0.10010
C1180       C  0.13031115  0.98318408  0.76273213     0.06180
C1181       C  0.14791157  0.96422513  0.75260670    -0.03780
C1182       C  0.13128091  0.94035499  0.73368817    -0.08230
C1183       C  0.09680075  0.93464647  0.72500928     0.05300
C1184       C  0.08095798  0.95612044  0.73388247    -0.03260
Br1185     Br  0.03418738  0.95022011  0.72258464    -0.02950
H1186       H  0.08356247  0.49400381  0.76055965     0.09210
H1187       H  0.14386672  0.92422113  0.72674781     0.07230
Br1188     Br  0.19186630  0.96633500  0.76596640    -0.03380
C1189       C  0.38286797  0.85317432  0.93356731    -0.10010
C1190       C  0.36808225  0.81502239  0.94120943     0.06180
C1191       C  0.33692994  0.78487877  0.92984219    -0.03780
C1192       C  0.32289679  0.79277609  0.91012037    -0.08230
C1193       C  0.33992690  0.83046611  0.90107719     0.05300
C1194       C  0.36910569  0.86127772  0.91368865    -0.03260
Br1195     Br  0.39530001  0.91431229  0.90350374    -0.02950
H1196       H  0.40706375  0.87648745  0.94218408     0.09210
H1197       H  0.30041893  0.76879624  0.90083816     0.07230
Br1198     Br  0.31542785  0.73185286  0.93879860    -0.03380
C1199       C  0.26899165  0.69208918  0.84554565    -0.10010
C1200       C  0.26198552  0.70621686  0.82516514     0.06180
C1201       C  0.24821611  0.68142560  0.80629551    -0.03780
C1202       C  0.23992274  0.64297715  0.80833904    -0.08230
C1203       C  0.24389466  0.62774121  0.82928170     0.05300
C1204       C  0.25961513  0.65325832  0.84781187    -0.03260
Br1205     Br  0.26534847  0.63551451  0.87715374    -0.02950
H1206       H  0.28165251  0.71143275  0.85989184     0.09210
H1207       H  0.22677873  0.62371599  0.79401031     0.07230
Br1208     Br  0.24032188  0.69892068  0.77740721    -0.03380
C1209       C  0.00681231  0.97353736  0.83764706    -0.10010
C1210       C  0.02082398  0.94964221  0.83037830     0.06180
C1211       C  0.99700639  0.91350343  0.82088308    -0.03780
C1212       C  0.45861704  0.89997551  0.82060433    -0.08230
C1213       C  0.44372583  0.92199199  0.82976097     0.05300
C1214       C  0.46785164  0.95958065  0.83767189    -0.03260
Br1215     Br  0.44895652  0.99066295  0.85070854    -0.02950
H1216       H  0.02604009  0.50234660  0.84403562     0.09210
H1217       H  0.44029914  0.87094162  0.81444605     0.07230
Br1218     Br  0.01544747  0.88181537  0.80794814    -0.03380
C1219       C  0.25085097  0.90738831  0.84947381    -0.10010
C1220       C  0.23373578  0.87539950  0.83447741     0.06180
C1221       C  0.20480442  0.87240654  0.82005294    -0.03780
C1222       C  0.19358221  0.90036621  0.82100962    -0.08230
C1223       C  0.21068845  0.93233548  0.83603526     0.05300
C1224       C  0.24004952  0.93564581  0.85021557    -0.03260
Br1225     Br  0.26822077  0.47888559  0.87011312    -0.02950
H1226       H  0.27413005  0.91153820  0.86027569     0.09210
H1227       H  0.17059279  0.89645329  0.81001854     0.07230
Br1228     Br  0.17855407  0.83033134  0.79918699    -0.03380
C1229       C  0.38023505  0.78128529  0.75882364    -0.10010
C1230       C  0.38250839  0.81619787  0.76544913     0.06180
C1231       C  0.41067680  0.85094735  0.75519851    -0.03780
C1232       C  0.43529321  0.85046821  0.73851391    -0.08230
C1233       C  0.43359896  0.81584592  0.73204453     0.05300
C1234       C  0.40557268  0.78092501  0.74233070    -0.03260
Br1235     Br  0.39957111  0.73207094  0.73350652    -0.02950
H1236       H  0.35915651  0.75433425  0.76676480     0.09210
H1237       H  0.45591847  0.87745907  0.73042531     0.07230
Br1238     Br  0.41616922  0.89996768  0.76306129    -0.03380
C1239       C  0.29065725  0.91966824  0.75940399    -0.10010
C1240       C  0.32228197  0.92725706  0.77255685     0.06180
C1241       C  0.35750700  0.96074614  0.76800611    -0.03780
C1242       C  0.36194732  0.48285967  0.74844860    -0.08230
C1243       C  0.33126356  0.97259451  0.73356805     0.05300
C1244       C  0.29461639  0.94276178  0.74042401    -0.03260
Br1245     Br  0.24899510  0.93199062  0.72474657    -0.02950
H1246       H  0.26292659  0.89514503  0.76362336     0.09210
H1247       H  0.39014997  0.50636305  0.74407102     0.07230
Br1248     Br  0.40100249  0.47582522  0.78694065    -0.03380
O1249       O  0.82470446  0.30755642  0.86327298    -0.86570
O1250       O  0.81540452  0.26693442  0.82348589    -0.83250
C1251       C  0.77986168  0.24857630  0.82219517     0.97260
O1252       O  0.76192410  0.26624713  0.81765420    -0.83290
O1253       O  0.75165819  0.33430311  0.81362098    -0.85930
C1254       C  0.75150884  0.35047216  0.83238828     1.01780
O1255       O  0.77431368  0.35360114  0.84763137    -0.78690
O1256       O  0.83913744  0.36752807  0.86910103    -0.78880
C1257       C  0.83263127  0.33506383  0.87684690     1.01730
O1258       O  0.89129586  0.36911937  0.84481594    -0.86200
O1259       O  0.87623026  0.33238297  0.80324872    -0.83270
C1260       C  0.85925973  0.31711103  0.78493551     0.97280
O1261       O  0.82323776  0.30260383  0.78358089    -0.83290
O1262       O  0.81412191  0.36660305  0.78303248    -0.85900
C1263       C  0.81831441  0.39852480  0.78969721     1.01750
O1264       O  0.81765563  0.40548078  0.81069928    -0.78720
O1265       O  0.88153634  0.41243523  0.82894233    -0.78870
C1266       C  0.90376281  0.40104547  0.83493669     1.01710
Cr1267     Cr  0.84980402  0.32035722  0.83303607     1.93740
Cr1268     Cr  0.78939645  0.31825191  0.80140832     1.93210
Cr1269     Cr  0.82760658  0.38182744  0.83824448     1.39100
O1270       O  0.82203612  0.34015789  0.82403224    -1.23960
O1271       O  0.51078867  0.27189647  0.67967138    -0.86210
O1272       O  0.58629779  0.34358888  0.68402647    -0.83250
C1273       C  0.60189298  0.36044711  0.66508394     0.97260
O1274       O  0.58161454  0.36261248  0.64992747    -0.83290
O1275       O  0.52787938  0.37211281  0.62879624    -0.85930
C1276       C  0.50376963  0.33901891  0.62122735     1.01780
O1277       O  0.98598661  0.31077580  0.63473966    -0.78690
O1278       O  0.95598765  0.26852460  0.67429574    -0.78880
C1279       C  0.47548411  0.25223900  0.67478342     1.01730
O1280       O  0.48075181  0.30405155  0.71380871    -0.86200
O1281       O  0.55048456  0.37105808  0.71470684    -0.83270
C1282       C  0.57628619  0.40414599  0.70812014     0.97280
O1283       O  0.58528086  0.41126463  0.68727191    -0.83290
O1284       O  0.52631065  0.41422383  0.66892175    -0.85900
C1285       C  0.99290291  0.40170538  0.66233935     1.01750
O1286       O  0.97542934  0.36962366  0.65267108    -0.78720
O1287       O  0.95555920  0.33245971  0.69417874    -0.78870
C1288       C  0.95799581  0.31732943  0.71250964     1.01710
Cr1289     Cr  0.53133267  0.32331605  0.69624622     1.93740
Cr1290     Cr  0.55304200  0.38702145  0.65958955     1.93210
Cr1291     Cr  0.97152119  0.32176462  0.66462774     1.39100
O1292       O  0.51890786  0.34397096  0.67362431    -1.23960
O1293       O  0.78520061  0.99223849  0.64760095    -0.86210
O1294       O  0.85411679  0.07159681  0.64345139    -0.83250
C1295       C  0.86700851  0.08778083  0.66267170     0.97260
O1296       O  0.86488342  0.06652124  0.67895468    -0.83290
O1297       O  0.87302897  0.01363993  0.70391927    -0.85930
C1298       C  0.83980440  0.98654774  0.70953610     1.01780
O1299       O  0.81626004  0.46700018  0.69423796    -0.78690
O1300       O  0.78509450  0.43823088  0.65202866    -0.78880
C1301       C  0.76703144  0.45591871  0.65206509     1.01730
O1302       O  0.82472164  0.46571580  0.61620068    -0.86200
O1303       O  0.88810987  0.03774875  0.61739936    -0.83270
C1304       C  0.91905746  0.06459223  0.62526391     0.97280
O1305       O  0.92225903  0.07405824  0.64613449    -0.83290
O1306       O  0.92566613  0.01732945  0.66832571    -0.85900
C1307       C  0.91395689  0.48337829  0.67486789     1.01750
O1308       O  0.88044301  0.46308959  0.68206222    -0.78720
O1309       O  0.85275977  0.44223978  0.63751015    -0.78870
C1310       C  0.83883468  0.44360302  0.61845135     1.01710
Cr1311     Cr  0.83824517  0.01603845  0.63301427     1.93740
Cr1312     Cr  0.89385953  0.04069325  0.67346110     1.93210
Cr1313     Cr  0.83518620  0.45597470  0.66586142     1.39100
O1314       O  0.85613454  0.00452468  0.65724756    -1.23960
O1315       O  0.78554961  0.24305783  0.51114057    -0.86210
O1316       O  0.85266117  0.23234859  0.51680618    -0.83250
C1317       C  0.87014964  0.23378684  0.49819521     0.97260
O1318       O  0.87316162  0.25730074  0.48318266    -0.83290
O1319       O  0.89301591  0.32591527  0.46269388    -0.85930
C1320       C  0.86231434  0.31996075  0.45370999     1.01780
O1321       O  0.83303749  0.31002140  0.46596049    -0.78690
O1322       O  0.78757166  0.29780134  0.50453517    -0.78880
C1323       C  0.76861319  0.26150727  0.50575107     1.01730
O1324       O  0.81929574  0.30435462  0.54609734    -0.86200
O1325       O  0.88129533  0.29574263  0.54794882    -0.83270
C1326       C  0.91340020  0.30075157  0.54228091     0.97280
O1327       O  0.92081189  0.29692273  0.52185491    -0.83290
O1328       O  0.93144807  0.36419726  0.50467156    -0.85900
C1329       C  0.92105889  0.38737352  0.49833795     1.01750
O1330       O  0.89122395  0.37520170  0.48714956    -0.78720
O1331       O  0.84994132  0.35882788  0.52666685    -0.78870
C1332       C  0.83413903  0.34118441  0.54497616     1.01710
Cr1333     Cr  0.83550128  0.27024476  0.52866254     1.93740
Cr1334     Cr  0.90167470  0.31037680  0.49381399     1.93210
Cr1335     Cr  0.84142146  0.33328497  0.49674273     1.39100
O1336       O  0.85932062  0.30434168  0.50656067    -1.23960
O1337       O  0.99101964  0.13163268  0.53388325    -0.86210
O1338       O  0.95665598  0.13658863  0.49454012    -0.83250
C1339       C  0.47380387  0.17284768  0.49386089     0.97260
O1340       O  0.50922960  0.19142608  0.48879601    -0.83290
O1341       O  0.58684305  0.20203443  0.48046264    -0.85930
C1342       C  0.60484832  0.20263915  0.49839982     1.01780
O1343       O  0.58628447  0.18125462  0.51472469    -0.78690
O1344       O  0.53682311  0.11847251  0.53946824    -0.78880
C1345       C  0.51168323  0.12560872  0.54730050     1.01730
O1346       O  0.98414475  0.06263711  0.51849152    -0.86200
O1347       O  0.95929000  0.07330029  0.47593183    -0.83270
C1348       C  0.95981256  0.09003939  0.45736850     0.97280
O1349       O  0.48015803  0.12697370  0.45596806    -0.83290
O1350       O  0.55003056  0.13599028  0.45281435    -0.85900
C1351       C  0.57762814  0.13134564  0.45745419     1.01750
O1352       O  0.58868153  0.13314037  0.47788423    -0.78720
O1353       O  0.53515621  0.07124013  0.50106484    -0.78870
C1354       C  0.00314963  0.04918702  0.50966501     1.01710
Cr1355     Cr  0.97594684  0.10286892  0.50497468     1.93740
Cr1356     Cr  0.53107377  0.16287129  0.47152081     1.93210
Cr1357     Cr  0.55954011  0.12661787  0.50751771     1.39100
O1358       O  0.52249989  0.13083400  0.49447682    -1.23960
O1359       O  0.81395445  0.46885950  0.30600705    -0.86210
O1360       O  0.81137972  0.49847744  0.34942118    -0.83250
C1361       C  0.77622996  0.47987510  0.35235674     0.97260
O1362       O  0.75954133  0.44333634  0.35594992    -0.83290
O1363       O  0.75254994  0.36520279  0.35811628    -0.85930
C1364       C  0.74937308  0.34858192  0.33895407     1.01780
O1365       O  0.77022221  0.36831509  0.32268065    -0.78690
O1366       O  0.82798373  0.42371923  0.29771140    -0.78880
C1367       C  0.82122625  0.45003665  0.29132193     1.01730
O1368       O  0.88226115  0.47777869  0.31774196    -0.86200
O1369       O  0.87625327  0.49764238  0.36267628    -0.83270
C1370       C  0.86184974  0.49391268  0.38248101     0.97280
O1371       O  0.82616726  0.47093813  0.38549997    -0.83290
O1372       O  0.82120988  0.40116933  0.38335172    -0.85900
C1373       C  0.82854388  0.37634824  0.37543347     1.01750
O1374       O  0.82244852  0.36635327  0.35477901    -0.78720
O1375       O  0.88074325  0.42752027  0.33238372    -0.78870
C1376       C  0.89919719  0.46112683  0.32416084     1.01710
Cr1377     Cr  0.84397330  0.48208538  0.33474784     1.93740
Cr1378     Cr  0.79078816  0.42079150  0.36872719     1.93210
Cr1379     Cr  0.82469774  0.39878433  0.32800906     1.39100
O1380       O  0.81926922  0.43347154  0.34383768    -1.23960
O1381       O  0.70211774  0.16884538  0.31305319    -0.86210
O1382       O  0.71476060  0.10204408  0.32309752    -0.83250
C1383       C  0.70231561  0.06902262  0.33302392     0.97260
O1384       O  0.66847647  0.04935259  0.33905221    -0.83290
O1385       O  0.63136822  0.07530727  0.36622033    -0.85930
C1386       C  0.61385923  0.09296560  0.37108359     1.01780
O1387       O  0.59600062  0.09843559  0.35554967    -0.78690
O1388       O  0.66251892  0.16223190  0.34106959    -0.78880
C1389       C  0.69211904  0.18335183  0.32948566     1.01730
O1390       O  0.64859670  0.11729159  0.27640326    -0.86200
O1391       O  0.66508029  0.06165603  0.28800984    -0.83270
C1392       C  0.63560085  0.02876364  0.29013541     0.97280
O1393       O  0.61224967  0.52091812  0.30641933    -0.83290
O1394       O  0.56943589  0.03763870  0.33404955    -0.85900
C1395       C  0.55622581  0.04738012  0.31771656     1.01750
O1396       O  0.57473634  0.08068838  0.30903014    -0.78720
O1397       O  0.63437837  0.15225524  0.29686838    -0.78870
C1398       C  0.63126911  0.13600895  0.27825494     1.01710
Cr1399     Cr  0.68060305  0.11243387  0.30183693     1.93740
Cr1400     Cr  0.62209863  0.04955594  0.33561445     1.93210
Cr1401     Cr  0.61839577  0.12131650  0.32540164     1.39100
O1402       O  0.64183392  0.09476726  0.32134699    -1.23960
O1403       O  0.96390045  0.16787973  0.18268076    -0.86210
O1404       O  0.88714727  0.09888255  0.18920638    -0.83250
C1405       C  0.86999944  0.08419323  0.17040103     0.97260
O1406       O  0.88928275  0.08315353  0.15400647    -0.83290
O1407       O  0.93744747  0.06842157  0.12901569    -0.85930
C1408       C  0.96218855  0.10142144  0.12119782     1.01780
O1409       O  0.98132187  0.12870755  0.13472493    -0.78690
O1410       O  0.01663545  0.16878591  0.17334976    -0.78880
C1411       C  0.99869936  0.18634720  0.17642725     1.01730
O1412       O  0.99504830  0.13259912  0.21331169    -0.86200
O1413       O  0.92302224  0.06748061  0.21622434    -0.83270
C1414       C  0.89366638  0.03653392  0.21040408     0.97280
O1415       O  0.88338960  0.53018907  0.18973612    -0.83290
O1416       O  0.93789349  0.02235597  0.16738179    -0.85900
C1417       C  0.97040576  0.03320497  0.15932619     1.01750
O1418       O  0.98945433  0.06610309  0.15016746    -0.78720
O1419       O  0.51716287  0.10388342  0.19122581    -0.78870
C1420       C  0.01885380  0.12095052  0.20968657     1.01710
Cr1421     Cr  0.94289284  0.11595147  0.19850618     1.93740
Cr1422     Cr  0.91426995  0.05380631  0.16084129     1.93210
Cr1423     Cr  0.99780990  0.11532484  0.16313963     1.39100
O1424       O  0.95160896  0.09479698  0.17451459    -1.23960
O1425       O  0.68760983  0.44556557  0.15313899    -0.86210
O1426       O  0.61994727  0.36809079  0.14529640    -0.83250
C1427       C  0.60280939  0.35046743  0.16371422     0.97260
O1428       O  0.59776052  0.36928798  0.17891539    -0.83290
O1429       O  0.58277908  0.41885981  0.20106627    -0.85930
C1430       C  0.61424697  0.44301412  0.20996048     1.01780
O1431       O  0.64296055  0.46324085  0.19740596    -0.78690
O1432       O  0.68821584  0.49952737  0.15970603    -0.78880
C1433       C  0.70573816  0.48112145  0.15887833     1.01730
O1434       O  0.65686607  0.47694314  0.11900036    -0.86200
O1435       O  0.59386202  0.40542925  0.11512304    -0.83270
C1436       C  0.56154848  0.37693708  0.11986644     0.97280
O1437       O  0.55188196  0.36618096  0.14037570    -0.83290
O1438       O  0.54379959  0.42264039  0.16036852    -0.85900
C1439       C  0.55418981  0.45545897  0.16844730     1.01750
O1440       O  0.58508888  0.47323371  0.17885043    -0.78720
O1441       O  0.62619478  0.49969199  0.13858800    -0.78870
C1442       C  0.64270826  0.49913449  0.12037960     1.01710
Cr1443     Cr  0.63866658  0.42458707  0.13495359     1.93740
Cr1444     Cr  0.57198325  0.39659796  0.16937249     1.93210
Cr1445     Cr  0.63433220  0.48070208  0.16788690     1.39100
O1446       O  0.61490752  0.43378683  0.15713977    -1.23960
O1447       O  0.68337096  0.19017415  0.01025145    -0.86210
O1448       O  0.61569601  0.20079428  0.01574116    -0.83250
C1449       C  0.59908520  0.19966656  0.99699178     0.97260
O1450       O  0.59604014  0.17548073  0.98241170    -0.83290
O1451       O  0.57789696  0.10576899  0.96344471    -0.85930
C1452       C  0.60923251  0.11177511  0.95501112     1.01780
O1453       O  0.63685506  0.11940869  0.96778305    -0.78690
O1454       O  0.68173000  0.13510787  0.00540672    -0.78880
C1455       C  0.70058396  0.17158299  0.00565750     1.01730
O1456       O  0.65090411  0.13151478  0.04656178    -0.86200
O1457       O  0.58736454  0.13870269  0.04814152    -0.83270
C1458       C  0.55520358  0.13333399  0.04240296     0.97280
O1459       O  0.54814199  0.13663443  0.02178509    -0.83290
O1460       O  0.53711453  0.06963581  0.00529805    -0.85900
C1461       C  0.54562443  0.04450332  0.00051847     1.01750
O1462       O  0.57685586  0.05350653  0.99090377    -0.78720
O1463       O  0.61928171  0.07527686  0.02952401    -0.78870
C1464       C  0.63709787  0.09484190  0.04664461     1.01710
Cr1465     Cr  0.63336952  0.16369547  0.02836850     1.93740
Cr1466     Cr  0.56790367  0.12255140  0.99394374     1.93210
Cr1467     Cr  0.62737267  0.09813218  0.99890682     1.39100
O1468       O  0.60960188  0.12823975  0.00719515    -1.23960
O1469       O  0.97939975  0.29625603  0.02671478    -0.86210
O1470       O  0.01277634  0.29515120  0.98677190    -0.83250
C1471       C  0.99431437  0.25894167  0.98534699     0.97260
O1472       O  0.95898545  0.24215977  0.98046351    -0.83290
O1473       O  0.88207331  0.23421251  0.97665291    -0.85930
C1474       C  0.86530942  0.23124375  0.99577232     1.01780
O1475       O  0.88510130  0.25082739  0.01221207    -0.78690
O1476       O  0.93868209  0.31323414  0.03743788    -0.78880
C1477       C  0.96483730  0.30589320  0.04238856     1.01730
O1478       O  0.99063395  0.37104118  0.01483796    -0.86200
O1479       O  0.51173673  0.36162380  0.97201659    -0.83270
C1480       C  0.01184251  0.34697966  0.95303384     0.97280
O1481       O  0.98849888  0.31073777  0.94979262    -0.83290
O1482       O  0.91706516  0.30281743  0.95022586    -0.85900
C1483       C  0.88998502  0.30663313  0.95775846     1.01750
O1484       O  0.88103507  0.30226144  0.97883166    -0.78720
O1485       O  0.93684647  0.36222677  0.00183305    -0.78870
C1486       C  0.96903199  0.38404828  0.01009736     1.01710
Cr1487     Cr  0.99521778  0.32920561  0.99957569     1.93740
Cr1488     Cr  0.93740544  0.27369777  0.96613726     1.93210
Cr1489     Cr  0.91256088  0.30641164  0.00654691     1.39100
O1490       O  0.94812521  0.30353060  0.99032247    -1.23960
O1491       O  0.70008150  0.98092363  0.85455502    -0.86210
O1492       O  0.72182886  0.06105000  0.84232250    -0.83250
C1493       C  0.71545927  0.08662395  0.83369755     0.97260
O1494       O  0.68222429  0.07914454  0.82983580    -0.83290
O1495       O  0.65110743  0.02409054  0.79564059    -0.85930
C1496       C  0.63413175  0.99036879  0.78730552     1.01780
O1497       O  0.61621319  0.46086063  0.79994443    -0.78690
O1498       O  0.66993684  0.45408617  0.82295727    -0.78880
C1499       C  0.69406895  0.45836280  0.83765930     1.01730
O1500       O  0.64149734  0.48075997  0.88454375    -0.86200
O1501       O  0.66672445  0.05647365  0.87398232    -0.83270
C1502       C  0.63561379  0.05628848  0.87218727     0.97280
O1503       O  0.61446083  0.04141235  0.85509432    -0.83290
O1504       O  0.58152873  0.99310141  0.81903333    -0.85900
C1505       C  0.56066786  0.46394218  0.83089336     1.01750
O1506       O  0.57377217  0.44610198  0.84164276    -0.78720
O1507       O  0.62386468  0.43063156  0.86312117    -0.78870
C1508       C  0.62142318  0.44454818  0.88182541     1.01710
Cr1509     Cr  0.68065670  0.01830340  0.86205092     1.93740
Cr1510     Cr  0.63372032  0.03218484  0.82597716     1.93210
Cr1511     Cr  0.62276337  0.45172978  0.83245229     1.39100
O1512       O  0.64676483  0.00119618  0.83980359    -1.23960
C1513       C  0.53814468  0.35784510  0.91296612    -0.10010
C1514       C  0.54068411  0.37214614  0.93515807     0.06180
C1515       C  0.57112680  0.41032677  0.93968839    -0.03780
C1516       C  0.59708991  0.43265978  0.92231527    -0.08230
C1517       C  0.59437713  0.41842049  0.90009787     0.05300
C1518       C  0.56412954  0.38024036  0.89560349    -0.03260
Br1519     Br  0.55446473  0.35661308  0.86598588    -0.02950
H1520       H  0.51529448  0.32901708  0.90888652     0.09210
H1521       H  0.61967942  0.46167331  0.92629191     0.07230
Br1522     Br  0.58048895  0.43482370  0.96909896    -0.03380
C1523       C  0.65269862  0.11061191  0.89850008    -0.10010
C1524       C  0.62491653  0.07429140  0.89038143     0.06180
C1525       C  0.58946619  0.05395993  0.90173727    -0.03780
C1526       C  0.58317135  0.06920670  0.92165068    -0.08230
C1527       C  0.61221026  0.10392217  0.93082971     0.05300
C1528       C  0.64664386  0.12551144  0.91859914    -0.03260
Br1529     Br  0.68693416  0.17450285  0.92921667    -0.02950
H1530       H  0.67992562  0.12660533  0.88974723     0.09210
H1531       H  0.55691346  0.05196212  0.93117160     0.07230
Br1532     Br  0.55131821  0.00253846  0.89322263    -0.03380
C1533       C  0.54160407  0.25108064  0.00822070    -0.10010
C1534       C  0.01667815  0.23907018  0.98941329     0.06180
C1535       C  0.02051540  0.21580522  0.97291795    -0.03780
C1536       C  0.54874984  0.20545665  0.97526265    -0.08230
C1537       C  0.57394578  0.21734459  0.99412670     0.05300
C1538       C  0.56948772  0.24029669  0.01085960    -0.03260
Br1539     Br  0.60053343  0.25866784  0.03761310    -0.02950
H1540       H  0.53985323  0.26987184  0.02088619     0.09210
H1541       H  0.55049046  0.18733102  0.96215352     0.07230
Br1542     Br  0.98935778  0.19935468  0.94619237    -0.03380
C1543       C  0.75641764  0.16669066  0.99096659    -0.10010
C1544       C  0.74299184  0.18975080  0.00131452     0.06180
C1545       C  0.77066373  0.22671320  0.00906604    -0.03780
C1546       C  0.80974595  0.23869085  0.00739633    -0.08230
C1547       C  0.82292440  0.21523283  0.99749729     0.05300
C1548       C  0.79551587  0.17905058  0.98895387    -0.03260
Br1549     Br  0.80999007  0.14474568  0.97542506    -0.02950
H1550       H  0.73624354  0.13819609  0.98461548     0.09210
H1551       H  0.83019535  0.26705750  0.01379321     0.07230
Br1552     Br  0.75724773  0.26184617  0.02266783    -0.03380
C1553       C  0.53504740  0.48828929  0.02208523    -0.10010
C1554       C  0.52058727  0.00472213  0.00705362     0.06180
C1555       C  0.98461954  0.48221613  0.99734699    -0.03780
C1556       C  0.96582056  0.44224636  0.00033288    -0.08230
C1557       C  0.98265668  0.42513627  0.01317836     0.05300
C1558       C  0.51599544  0.44873231  0.02570203    -0.03260
Br1559     Br  0.53829180  0.42956243  0.04723159    -0.02950
H1560       H  0.56200883  0.00614542  0.03045671     0.09210
H1561       H  0.93962325  0.42453825  0.99114464     0.07230
Br1562     Br  0.96239248  0.00417304  0.97800499    -0.03380
C1563       C  0.64666250  0.04144345  0.06080240    -0.10010
C1564       C  0.64281945  0.07374197  0.06593578     0.06180
C1565       C  0.64135163  0.08242439  0.08909820    -0.03780
C1566       C  0.64287461  0.05865026  0.10631758    -0.08230
C1567       C  0.64569200  0.02564785  0.10121998     0.05300
C1568       C  0.64822612  0.01769984  0.07797927    -0.03260
Br1569     Br  0.65113724  0.47353973  0.06815184    -0.02950
H1570       H  0.64770555  0.03402642  0.04311472     0.09210
H1571       H  0.64103235  0.06573318  0.12392394     0.07230
Br1572     Br  0.63366789  0.12401142  0.09831220    -0.03380
C1573       C  0.99614312  0.34167785  0.10324535    -0.10010
C1574       C  0.53545798  0.35534469  0.10109804     0.06180
C1575       C  0.54960125  0.34899763  0.08056647    -0.03780
C1576       C  0.52491638  0.32980178  0.06282030    -0.08230
C1577       C  0.98599379  0.31809481  0.06415789     0.05300
C1578       C  0.97146170  0.32386682  0.08476982    -0.03260
Br1579     Br  0.91877313  0.30833411  0.08856758    -0.02950
H1580       H  0.98488355  0.34630747  0.11898918     0.09210
H1581       H  0.53725018  0.32629128  0.04718796     0.07230
Br1582     Br  0.60246118  0.36620007  0.07489295    -0.03380
C1583       C  0.98578853  0.07843779  0.08999134    -0.10010
C1584       C  0.97599000  0.10558282  0.09749809     0.06180
C1585       C  0.98874170  0.14012833  0.08490233    -0.03780
C1586       C  0.01287068  0.14798568  0.06593716    -0.08230
C1587       C  0.52547308  0.12233876  0.05993281     0.05300
C1588       C  0.51096586  0.08691363  0.07170863    -0.03260
Br1589     Br  0.52654839  0.05015883  0.06443727    -0.02950
H1590       H  0.47676284  0.05204701  0.09969818     0.09210
H1591       H  0.02352777  0.17509119  0.05671912     0.07230
Br1592     Br  0.97524436  0.17789930  0.09362382    -0.03380
C1593       C  0.76130409  0.03735917  0.17783168    -0.10010
C1594       C  0.74763875  0.50389321  0.16399720     0.06180
C1595       C  0.77474693  0.49676778  0.15354393    -0.03780
C1596       C  0.81383306  0.52353368  0.15592605    -0.08230
C1597       C  0.82751172  0.05781925  0.16895916     0.05300
C1598       C  0.80052744  0.06378630  0.18053659    -0.03260
Br1599     Br  0.81548481  0.10859148  0.19900774    -0.02950
H1600       H  0.74124409  0.04357781  0.18630719     0.09210
H1601       H  0.83381967  0.51724940  0.14741259     0.07230
Br1602     Br  0.76051963  0.45227668  0.13482308    -0.03380
C1603       C  0.03651365  0.24297289  0.15130198    -0.10010
C1604       C  0.02118643  0.22875778  0.17313656     0.06180
C1605       C  0.53701942  0.25349817  0.19188825    -0.03780
C1606       C  0.56596988  0.29206053  0.18848516    -0.08230
C1607       C  0.58048010  0.30721109  0.16645525     0.05300
C1608       C  0.56569398  0.28148671  0.14779565    -0.03260
Br1609     Br  0.58367491  0.29607174  0.11710706    -0.02950
H1610       H  0.02644031  0.22346485  0.13687280     0.09210
H1611       H  0.57668943  0.31063099  0.20329728     0.07230
Br1612     Br  0.52162066  0.23511010  0.22260653    -0.03380
C1613       C  0.99186100  0.45174384  0.16349704    -0.10010
C1614       C  0.53155207  0.47398724  0.16614775     0.06180
C1615       C  0.54974615  0.01470510  0.16655114    -0.03780
C1616       C  0.52841245  0.03218715  0.16424115    -0.08230
C1617       C  0.98898907  0.01054789  0.16169431     0.05300
C1618       C  0.97026287  0.46988905  0.16148260    -0.03260
Br1619     Br  0.91629253  0.43828240  0.15753229    -0.02950
H1620       H  0.97771425  0.42042575  0.16317604     0.09210
H1621       H  0.54315303  0.06349667  0.16445327     0.07230
Br1622     Br  0.60380177  0.04972993  0.16932089    -0.03380
C1623       C  0.60928798  0.13014457  0.23724324    -0.10010
C1624       C  0.60444254  0.13590443  0.26038978     0.06180
C1625       C  0.57261278  0.14018404  0.26622071    -0.03780
C1626       C  0.54536438  0.13505233  0.24971387    -0.08230
C1627       C  0.54952511  0.12795536  0.22672363     0.05300
C1628       C  0.58345796  0.12805245  0.22049534    -0.03260
Br1629     Br  0.59932615  0.13113604  0.18929312    -0.02950
H1630       H  0.63413648  0.12873334  0.23197660     0.09210
H1631       H  0.52068222  0.13677940  0.25497637     0.07230
Br1632     Br  0.56360414  0.15312942  0.29633700    -0.03380
C1633       C  0.59188232  0.47488297  0.26525602    -0.10010
C1634       C  0.62896836  0.49928654  0.27298988     0.06180
C1635       C  0.65946942  0.49730175  0.26277847    -0.03780
C1636       C  0.65284772  0.47396313  0.24380985    -0.08230
C1637       C  0.61647085  0.45330969  0.23423641     0.05300
C1638       C  0.58524934  0.45193355  0.24597834    -0.03260
Br1639     Br  0.53360893  0.42401142  0.23535373    -0.02950
H1640       H  0.56829288  0.47608342  0.27301744     0.09210
H1641       H  0.67695245  0.47464050  0.23532890     0.07230
Br1642     Br  0.71120241  0.02728154  0.27285311    -0.03380
C1643       C  0.83596065  0.50444330  0.23527766    -0.10010
C1644       C  0.87087417  0.50832333  0.22823889     0.06180
C1645       C  0.88587457  0.48876582  0.24023840    -0.03780
C1646       C  0.86695423  0.46711023  0.25958754    -0.08230
C1647       C  0.83350624  0.46542821  0.26787225     0.05300
C1648       C  0.81739364  0.48342749  0.25517260    -0.03260
Br1649     Br  0.77060755  0.48015914  0.26444318    -0.02950
H1650       H  0.82418619  0.51941558  0.22597338     0.09210
H1651       H  0.88017748  0.45379058  0.26910389     0.07230
Br1652     Br  0.93335857  0.49267806  0.23154681    -0.03380
C1653       C  0.71599113  0.24906089  0.31309443    -0.10010
C1654       C  0.70954148  0.22601345  0.33256132     0.06180
C1655       C  0.71109588  0.24254598  0.35417972    -0.03780
C1656       C  0.72066195  0.28161110  0.35595724    -0.08230
C1657       C  0.72855762  0.30523514  0.33645266     0.05300
C1658       C  0.72470035  0.28770659  0.31475843    -0.03260
Br1659     Br  0.72937019  0.31407488  0.28634949    -0.02950
H1660       H  0.71251403  0.23638354  0.29629947     0.09210
H1661       H  0.72410446  0.29407296  0.37280460     0.07230
Br1662     Br  0.70399393  0.21400098  0.38203117    -0.03380
C1663       C  0.76006223  0.06597362  0.34599863    -0.10010
C1664       C  0.72343498  0.04783976  0.33692986     0.06180
C1665       C  0.70358013  0.50635281  0.33501989    -0.03780
C1666       C  0.72049201  0.48493965  0.34129147    -0.08230
C1667       C  0.75690937  0.50286847  0.35005413     0.05300
C1668       C  0.77659201  0.04396623  0.35291576    -0.03260
Br1669     Br  0.82531235  0.07198029  0.36753686    -0.02950
H1670       H  0.77515447  0.09697335  0.34869721     0.09210
H1671       H  0.70522606  0.45387038  0.33875981     0.07230
Br1672     Br  0.65234556  0.47438515  0.32437789    -0.03380
C1673       C  0.95943796  0.46194355  0.31887705    -0.10010
C1674       C  0.93961062  0.48191148  0.32038298     0.06180
C1675       C  0.95849071  0.02256104  0.31671582    -0.03780
C1676       C  0.49639630  0.04200277  0.31135789    -0.08230
C1677       C  0.51692114  0.02300416  0.31237866     0.05300
C1678       C  0.49849613  0.48248892  0.31534298    -0.03260
Br1679     Br  0.52506815  0.45422081  0.31618723    -0.02950
H1680       H  0.94487929  0.43080424  0.32118079     0.09210
H1681       H  0.51071737  0.07321068  0.30973078     0.07230
Br1682     Br  0.93731831  0.05572909  0.32193240    -0.03380
C1683       C  0.91784331  0.05516740  0.39725362    -0.10010
C1684       C  0.88654935  0.01805882  0.40185024     0.06180
C1685       C  0.88019225  0.50489394  0.42481069    -0.03780
C1686       C  0.90416954  0.02868918  0.44229410    -0.08230
C1687       C  0.93508248  0.06618904  0.43781479     0.05300
C1688       C  0.94179366  0.07907057  0.41474791    -0.03260
Br1689     Br  0.98423155  0.12806126  0.40545800    -0.02950
H1690       H  0.92374908  0.06588091  0.37981227     0.09210
H1691       H  0.89847938  0.01753242  0.45964041     0.07230
Br1692     Br  0.84080253  0.45373588  0.43341584    -0.03380
C1693       C  0.60100430  0.14899118  0.41854276    -0.10010
C1694       C  0.59744376  0.12650499  0.43771919     0.06180
C1695       C  0.60514778  0.09601628  0.43553570    -0.03780
C1696       C  0.61344817  0.08689807  0.41381862    -0.08230
C1697       C  0.61262212  0.10696264  0.39423480     0.05300
C1698       C  0.60707153  0.13898492  0.39697143    -0.03260
Br1699     Br  0.60371213  0.16925884  0.37235826    -0.02950
H1700       H  0.59557922  0.17282430  0.42007494     0.09210
H1701       H  0.61764060  0.06234364  0.41205370     0.07230
Br1702     Br  0.60032099  0.06350383  0.46091121    -0.03380
C1703       C  0.83706141  0.30616481  0.41425076    -0.10010
C1704       C  0.86274364  0.33230698  0.43009698     0.06180
C1705       C  0.88419896  0.37197492  0.42425486    -0.03780
C1706       C  0.87381153  0.38558429  0.40541812    -0.08230
C1707       C  0.84494084  0.35991896  0.39097636     0.05300
C1708       C  0.82998763  0.31986909  0.39391928    -0.03260
Br1709     Br  0.80150418  0.28345014  0.37077464    -0.02950
H1710       H  0.82223725  0.27535413  0.41783008     0.09210
H1711       H  0.88760155  0.41654009  0.40237722     0.07230
Br1712     Br  0.92652427  0.40977495  0.44145307    -0.03380
C1713       C  0.66000007  0.19326949  0.50637936    -0.10010
C1714       C  0.64692134  0.21798192  0.49842462     0.06180
C1715       C  0.67409801  0.25527953  0.49108955    -0.03780
C1716       C  0.71309835  0.26771282  0.49277473    -0.08230
C1717       C  0.72647486  0.24356452  0.50159274     0.05300
C1718       C  0.69898176  0.20533398  0.50768357    -0.03260
Br1719     Br  0.71231302  0.16829419  0.51824198    -0.02950
H1720       H  0.63956661  0.16399502  0.51173356     0.09210
H1721       H  0.73314041  0.29717348  0.48756235     0.07230
Br1722     Br  0.65947727  0.29122641  0.48044812    -0.03380
C1723       C  0.95716339  0.22339560  0.48420697    -0.10010
C1724       C  0.94975722  0.19094657  0.49710806     0.06180
C1725       C  0.91567501  0.17243182  0.51044655    -0.03780
C1726       C  0.88948921  0.18558989  0.50988573    -0.08230
C1727       C  0.89634227  0.21758324  0.49652088     0.05300
C1728       C  0.93134281  0.23693452  0.48380596    -0.03260
Br1729     Br  0.94815104  0.28343282  0.46606149    -0.02950
H1730       H  0.48284047  0.23784286  0.47384724     0.09210
H1731       H  0.86401596  0.17121831  0.52041935     0.07230
Br1732     Br  0.90391029  0.13023484  0.53105864    -0.03380
C1733       C  0.94591184  0.48973945  0.50328755    -0.10010
C1734       C  0.98471926  0.00787947  0.50772963     0.06180
C1735       C  0.00309455  0.48635597  0.51016962    -0.03780
C1736       C  0.98177171  0.44628868  0.50765250    -0.08230
C1737       C  0.94278749  0.42839287  0.50269670     0.05300
C1738       C  0.92467617  0.45058648  0.50099620    -0.03260
Br1739     Br  0.87125528  0.43149871  0.49566006    -0.02950
H1740       H  0.93166377  0.50633534  0.50135400     0.09210
H1741       H  0.99564005  0.42931369  0.50921025     0.07230
Br1742     Br  0.55590397  0.00978046  0.51783065    -0.03380
C1743       C  0.83004014  0.39796106  0.55927210    -0.10010
C1744       C  0.83256275  0.36488611  0.56443846     0.06180
C1745       C  0.83745529  0.35826817  0.58755839    -0.03780
C1746       C  0.83944355  0.38408440  0.60464265    -0.08230
C1747       C  0.83677863  0.41718127  0.59944442     0.05300
C1748       C  0.83220153  0.42384670  0.57622546    -0.03260
Br1749     Br  0.83134382  0.46902613  0.56591569    -0.02950
H1750       H  0.82687394  0.40418740  0.54166685     0.09210
H1751       H  0.84337172  0.37822314  0.62219257     0.07230
Br1752     Br  0.84462633  0.31631906  0.59670286    -0.03380
C1753       C  0.96200849  0.12273796  0.60216027    -0.10010
C1754       C  0.95146520  0.08524609  0.60953005     0.06180
C1755       C  0.96838903  0.06575065  0.59932298    -0.03780
C1756       C  0.99300917  0.08245246  0.58067112    -0.08230
C1757       C  0.49996823  0.11791241  0.57147398     0.05300
C1758       C  0.98586124  0.13903494  0.58304962    -0.03260
Br1759     Br  0.99643940  0.18894498  0.57243338    -0.02950
H1760       H  0.94952400  0.13815284  0.61019655     0.09210
H1761       H  0.50339741  0.06570148  0.57190200     0.07230
Br1762     Br  0.95600337  0.01477525  0.60903454    -0.03380
C1763       C  0.47838625  0.29857475  0.58701944    -0.10010
C1764       C  0.49073290  0.33438441  0.59755270     0.06180
C1765       C  0.98162070  0.36096008  0.58763462    -0.03780
C1766       C  0.95754735  0.34974401  0.56885806    -0.08230
C1767       C  0.94290487  0.31282899  0.55955305     0.05300
C1768       C  0.95473466  0.28776062  0.56803592    -0.03260
Br1769     Br  0.43611267  0.23703240  0.55611031    -0.02950
H1770       H  0.48499507  0.27787488  0.59454306     0.09210
H1771       H  0.94879290  0.36930521  0.56210055     0.07230
Br1772     Br  0.99641388  0.41082025  0.60035421    -0.03380
C1773       C  0.70093499  0.44586594  0.64993882    -0.10010
C1774       C  0.72492363  0.43206260  0.65653066     0.06180
C1775       C  0.70770551  0.39403398  0.66640369    -0.03780
C1776       C  0.66805107  0.37163441  0.66945702    -0.08230
C1777       C  0.64413423  0.38497959  0.66210855     0.05300
C1778       C  0.66120591  0.42286227  0.65229625    -0.03260
Br1779     Br  0.63268332  0.44642933  0.64211041    -0.02950
H1780       H  0.71305297  0.47446291  0.64236826     0.09210
H1781       H  0.65572150  0.34306464  0.67710751     0.07230
Br1782     Br  0.73539895  0.36923637  0.67623214    -0.03380
C1783       C  0.91593640  0.14418795  0.68530174    -0.10010
C1784       C  0.89410563  0.13085936  0.66506837     0.06180
C1785       C  0.90346988  0.15812285  0.64713698    -0.03780
C1786       C  0.93266337  0.19690971  0.65000048    -0.08230
C1787       C  0.95403701  0.20982425  0.67025443     0.05300
C1788       C  0.94541931  0.18275770  0.68790152    -0.03260
Br1789     Br  0.97151814  0.19778622  0.71651734    -0.02950
H1790       H  0.91041936  0.12437724  0.69938504     0.09210
H1791       H  0.93788322  0.21765740  0.63649728     0.07230
Br1792     Br  0.87707215  0.14522462  0.61857383    -0.03380
C1793       C  0.91573190  0.42462871  0.67026217    -0.10010
C1794       C  0.93654256  0.46486560  0.67260455     0.06180
C1795       C  0.97656676  0.48483044  0.67151508    -0.03780
C1796       C  0.99491918  0.46372845  0.66820573    -0.08230
C1797       C  0.97362576  0.42335955  0.66572390     0.05300
C1798       C  0.93353590  0.40373415  0.66690139    -0.03260
Br1799     Br  0.89980192  0.34849458  0.66482046    -0.02950
H1800       H  0.88486449  0.40885345  0.67065904     0.09210
H1801       H  0.52573607  0.47883705  0.66740041     0.07230
Br1802     Br  0.50742970  0.03989268  0.67494731    -0.03380
C1803       C  0.59800541  0.48051796  0.75250684    -0.10010
C1804       C  0.63032109  0.48318675  0.76273277     0.06180
C1805       C  0.64792028  0.46422567  0.75260873    -0.03780
C1806       C  0.63128822  0.44035314  0.73369141    -0.08230
C1807       C  0.59680809  0.43464479  0.72501265     0.05300
C1808       C  0.58096707  0.45612138  0.73388408    -0.03260
Br1809     Br  0.53419607  0.45022048  0.72258654    -0.02950
H1810       H  0.58355060  0.99399832  0.76056035     0.09210
H1811       H  0.64387275  0.42421740  0.72675205     0.07230
Br1812     Br  0.69187426  0.46633526  0.76596937    -0.03380
C1813       C  0.88285327  0.35318376  0.93357739    -0.10010
C1814       C  0.86806718  0.31503230  0.94122037     0.06180
C1815       C  0.83691755  0.28488763  0.92985188    -0.03780
C1816       C  0.82288816  0.29278337  0.91012791    -0.08230
C1817       C  0.83991979  0.33047274  0.90108381     0.05300
C1818       C  0.86909499  0.36128559  0.91369649    -0.03260
Br1819     Br  0.89529110  0.41431971  0.90351055    -0.02950
H1820       H  0.90704752  0.37649757  0.94219484     0.09210
H1821       H  0.80041267  0.26880277  0.90084487     0.07230
Br1822     Br  0.81541543  0.23186217  0.93880916    -0.03380
C1823       C  0.76899335  0.19208972  0.84554635    -0.10010
C1824       C  0.76198500  0.20621967  0.82516749     0.06180
C1825       C  0.74821010  0.18142951  0.80629763    -0.03780
C1826       C  0.73991430  0.14298009  0.80833942    -0.08230
C1827       C  0.74388953  0.12774243  0.82928051     0.05300
C1828       C  0.75961464  0.15325809  0.84781087    -0.03260
Br1829     Br  0.76535127  0.13551157  0.87715108    -0.02950
H1830       H  0.78165754  0.21143215  0.85989266     0.09210
H1831       H  0.72676669  0.12371994  0.79401072     0.07230
Br1832     Br  0.74031221  0.19892734  0.77741132    -0.03380
C1833       C  0.50681368  0.47354333  0.83763999    -0.10010
C1834       C  0.52082614  0.44964895  0.83037330     0.06180
C1835       C  0.49700628  0.41350424  0.82088419    -0.03780
C1836       C  0.95861975  0.39997803  0.82061192    -0.08230
C1837       C  0.94372613  0.42199159  0.82976512     0.05300
C1838       C  0.96785371  0.45958572  0.83766969    -0.03260
Br1839     Br  0.94896015  0.49067026  0.85070481    -0.02950
H1840       H  0.52603263  0.00233018  0.84404461     0.09210
H1841       H  0.94028137  0.37091061  0.81445297     0.07230
Br1842     Br  0.51544652  0.38181426  0.80795149    -0.03380
C1843       C  0.75085112  0.40738947  0.84947660    -0.10010
C1844       C  0.73373612  0.37540032  0.83448044     0.06180
C1845       C  0.70480336  0.37240536  0.82005663    -0.03780
C1846       C  0.69357951  0.40036361  0.82101371    -0.08230
C1847       C  0.71068564  0.43233331  0.83603905     0.05300
C1848       C  0.74004812  0.43564565  0.85021869    -0.03260
Br1849     Br  0.76822210  0.97888458  0.87011080    -0.02950
H1850       H  0.77413130  0.41154079  0.86027792     0.09210
H1851       H  0.67058907  0.39644934  0.81002311     0.07230
Br1852     Br  0.67855346  0.33032932  0.79919116    -0.03380
C1853       C  0.88024034  0.28128666  0.75883119    -0.10010
C1854       C  0.88251410  0.31619950  0.76545658     0.06180
C1855       C  0.91068357  0.35094886  0.75520642    -0.03780
C1856       C  0.93530066  0.35046946  0.73852239    -0.08230
C1857       C  0.93360581  0.31584689  0.73205298     0.05300
C1858       C  0.90557848  0.28092607  0.74233872    -0.03260
Br1859     Br  0.89957595  0.23207165  0.73351439    -0.02950
H1860       H  0.85916094  0.25433573  0.76677191     0.09210
H1861       H  0.95592664  0.37746026  0.73043408     0.07230
Br1862     Br  0.91617620  0.39996938  0.76306878    -0.03380
C1863       C  0.79066472  0.41967575  0.75940866    -0.10010
C1864       C  0.82228920  0.42726229  0.77256099     0.06180
C1865       C  0.85751503  0.46075060  0.76801052    -0.03780
C1866       C  0.86193835  0.98285397  0.74844373    -0.08230
C1867       C  0.83127260  0.47260215  0.73357326     0.05300
C1868       C  0.79462480  0.44277052  0.74042920    -0.03260
Br1869     Br  0.74900396  0.43200166  0.72475196    -0.02950
H1870       H  0.76293353  0.39515333  0.76362798     0.09210
H1871       H  0.89014054  0.00635825  0.74406622     0.07230
Br1872     Br  0.90099487  0.97582319  0.78693634    -0.03380
O1873       O  0.82470554  0.80755193  0.86326661    -0.86570
O1874       O  0.81540426  0.76693174  0.82347889    -0.83250
C1875       C  0.77986112  0.74857313  0.82219121     0.97260
O1876       O  0.76192237  0.76624336  0.81765172    -0.83290
O1877       O  0.75165456  0.83429884  0.81361861    -0.85930
C1878       C  0.75150715  0.85046971  0.83238557     1.01780
O1879       O  0.77431263  0.85359859  0.84762827    -0.78690
O1880       O  0.83913791  0.86752302  0.86909657    -0.78880
C1881       C  0.83263370  0.83505859  0.87684131     1.01730
O1882       O  0.89129561  0.86911635  0.84480929    -0.86200
O1883       O  0.87622755  0.83238202  0.80324151    -0.83270
C1884       C  0.85925552  0.81710923  0.78492896     0.97280
O1885       O  0.82323304  0.80260038  0.78357584    -0.83290
O1886       O  0.81411496  0.86659806  0.78302840    -0.85900
C1887       C  0.81830876  0.89852029  0.78969325     1.01750
O1888       O  0.81765320  0.90547753  0.81069550    -0.78720
O1889       O  0.88153461  0.91243237  0.82893735    -0.78870
C1890       C  0.90376169  0.90104280  0.83493107     1.01710
Cr1891     Cr  0.84980342  0.82035452  0.83302943     1.93740
Cr1892     Cr  0.78939226  0.81824765  0.80140478     1.93210
Cr1893     Cr  0.82760529  0.88182400  0.83824044     1.39100
O1894       O  0.82203411  0.84015468  0.82402750    -1.23960
O1895       O  0.51078705  0.77190067  0.67966484    -0.86210
O1896       O  0.58629411  0.84359398  0.68402068    -0.83250
C1897       C  0.60188955  0.86045213  0.66507817     0.97260
O1898       O  0.58161169  0.86261824  0.64992159    -0.83290
O1899       O  0.52787783  0.87212080  0.62878973    -0.85930
C1900       C  0.50376888  0.83902771  0.62121932     1.01780
O1901       O  0.98598601  0.81078274  0.63473056    -0.78690
O1902       O  0.95598576  0.76852701  0.67428546    -0.78880
C1903       C  0.47548304  0.75224226  0.67477582     1.01730
O1904       O  0.48074640  0.80405240  0.71380092    -0.86200
O1905       O  0.55047747  0.87106060  0.71470104    -0.83270
C1906       C  0.57627992  0.90414884  0.70811548     0.97280
O1907       O  0.58527642  0.91126822  0.68726744    -0.83290
O1908       O  0.52630609  0.91422688  0.66891680    -0.85900
C1909       C  0.99289873  0.90170827  0.66233376     1.01750
O1910       O  0.97542615  0.86962743  0.65266443    -0.78720
O1911       O  0.95555280  0.83245890  0.69417034    -0.78870
C1912       C  0.95798937  0.81732893  0.71250136     1.01710
Cr1913     Cr  0.53132838  0.82331951  0.69623964     1.93740
Cr1914     Cr  0.55303865  0.88702637  0.65958400     1.93210
Cr1915     Cr  0.97151816  0.82176760  0.66461927     1.39100
O1916       O  0.51890415  0.84397439  0.67361733    -1.23960
O1917       O  0.78520497  0.49223586  0.64760619    -0.86210
O1918       O  0.85412117  0.57159371  0.64345302    -0.83250
C1919       C  0.86701421  0.58778060  0.66267247     0.97260
O1920       O  0.86489173  0.56652390  0.67895650    -0.83290
O1921       O  0.87303826  0.51364512  0.70392347    -0.85930
C1922       C  0.83981351  0.48655419  0.70954122     1.01780
O1923       O  0.81625176  0.96699470  0.69423209    -0.78690
O1924       O  0.78508971  0.93823278  0.65202032    -0.78880
C1925       C  0.76702697  0.95592093  0.65205839     1.01730
O1926       O  0.82471959  0.96572250  0.61619332    -0.86200
O1927       O  0.88811312  0.53774272  0.61740221    -0.83270
C1928       C  0.91906144  0.56458758  0.62526530     0.97280
O1929       O  0.92226439  0.57405608  0.64613554    -0.83290
O1930       O  0.92567271  0.51732949  0.66832920    -0.85900
C1931       C  0.91394998  0.98337742  0.67486277     1.01750
O1932       O  0.88043543  0.96308720  0.68205562    -0.78720
O1933       O  0.85275601  0.94224362  0.63750205    -0.78870
C1934       C  0.83883363  0.94361028  0.61844287     1.01710
Cr1935     Cr  0.83824906  0.51603424  0.63301853     1.93740
Cr1936     Cr  0.89386686  0.54069456  0.67346386     1.93210
Cr1937     Cr  0.83518001  0.95597418  0.66585430     1.39100
O1938       O  0.85614033  0.50452392  0.65725221    -1.23960
O1939       O  0.78555506  0.74307053  0.51113074    -0.86210
O1940       O  0.85266578  0.73236074  0.51679705    -0.83250
C1941       C  0.87015178  0.73379420  0.49818595     0.97260
O1942       O  0.87316272  0.75730512  0.48317158    -0.83290
O1943       O  0.89301566  0.82591744  0.46267789    -0.85930
C1944       C  0.86231420  0.81996534  0.45369466     1.01780
O1945       O  0.83303872  0.81002818  0.46594616    -0.78690
O1946       O  0.78757654  0.79781305  0.50452230    -0.78880
C1947       C  0.76861801  0.76151905  0.50574065     1.01730
O1948       O  0.81930415  0.80437270  0.54608373    -0.86200
O1949       O  0.88130396  0.79576089  0.54793551    -0.83270
C1950       C  0.91340796  0.80076731  0.54226770     0.97280
O1951       O  0.92081769  0.79693458  0.52184176    -0.83290
O1952       O  0.93145298  0.86420478  0.50465340    -0.85900
C1953       C  0.92106428  0.88738101  0.49831929     1.01750
O1954       O  0.89122834  0.87520906  0.48713200    -0.78720
O1955       O  0.84994904  0.85884359  0.52665122    -0.78870
C1956       C  0.83414827  0.84120248  0.54496155     1.01710
Cr1957     Cr  0.83550797  0.77025982  0.52865090     1.93740
Cr1958     Cr  0.90167743  0.81038334  0.49379931     1.93210
Cr1959     Cr  0.84142609  0.83329542  0.49672780     1.39100
O1960       O  0.85932522  0.80435231  0.50654675    -1.23960
O1961       O  0.99102682  0.63163811  0.53388573    -0.86210
O1962       O  0.95665703  0.63659442  0.49454564    -0.83250
C1963       C  0.47380582  0.67285335  0.49386306     0.97260
O1964       O  0.50923128  0.69142964  0.48879722    -0.83290
O1965       O  0.58684131  0.70203123  0.48045910    -0.85930
C1966       C  0.60484999  0.70263544  0.49839453     1.01780
O1967       O  0.58629015  0.68125016  0.51472013    -0.78690
O1968       O  0.53682700  0.61847176  0.53946692    -0.78880
C1969       C  0.51168964  0.62561029  0.54730140     1.01730
O1970       O  0.98414118  0.56263761  0.51849362    -0.86200
O1971       O  0.95928350  0.57330255  0.47593661    -0.83270
C1972       C  0.95980504  0.59004137  0.45737349     0.97280
O1973       O  0.48015082  0.62697530  0.45597239    -0.83290
O1974       O  0.55002037  0.63598647  0.45281131    -0.85900
C1975       C  0.57761563  0.63133637  0.45744820     1.01750
O1976       O  0.58867223  0.63313022  0.47787759    -0.78720
O1977       O  0.53514692  0.57123400  0.50106256    -0.78870
C1978       C  0.00314301  0.54918402  0.50966708     1.01710
Cr1979     Cr  0.97594660  0.60287257  0.50497812     1.93740
Cr1980     Cr  0.53106996  0.66287075  0.47152075     1.93210
Cr1981     Cr  0.55953788  0.62661300  0.50751408     1.39100
O1982       O  0.52249799  0.63083390  0.49447689    -1.23960
O1983       O  0.81389486  0.96886619  0.30601361    -0.86210
O1984       O  0.81134123  0.99847744  0.34943479    -0.83250
C1985       C  0.77619113  0.97987001  0.35236992     0.97260
O1986       O  0.75950876  0.94333154  0.35596330    -0.83290
O1987       O  0.75252874  0.86520060  0.35812750    -0.85930
C1988       C  0.74934274  0.84857987  0.33896418     1.01780
O1989       O  0.77017641  0.86831770  0.32268723    -0.78690
O1990       O  0.82791510  0.92372388  0.29770595    -0.78880
C1991       C  0.82115603  0.95004322  0.29132260     1.01730
O1992       O  0.88220923  0.97778969  0.31772672    -0.86200
O1993       O  0.87623043  0.99765072  0.36266833    -0.83270
C1994       C  0.86183719  0.99391888  0.38247669     0.97280
O1995       O  0.82615544  0.97094444  0.38550073    -0.83290
O1996       O  0.82120346  0.90117831  0.38334643    -0.85900
C1997       C  0.82853644  0.87635925  0.37542321     1.01750
O1998       O  0.82243345  0.86636598  0.35476833    -0.78720
O1999       O  0.88070498  0.92753156  0.33235743    -0.78870
C2000       C  0.89915096  0.96113580  0.32413035     1.01710
Cr2001     Cr  0.84393100  0.98209164  0.33474743     1.93740
Cr2002     Cr  0.79076880  0.92079437  0.36873210     1.93210
Cr2003     Cr  0.82465609  0.89879152  0.32800078     1.39100
O2004       O  0.81923616  0.93347697  0.34383667    -1.23960
O2005       O  0.70215007  0.66885843  0.31306058    -0.86210
O2006       O  0.71481037  0.60206421  0.32310027    -0.83250
C2007       C  0.70236727  0.56904421  0.33302800     0.97260
O2008       O  0.66853015  0.54937516  0.33905935    -0.83290
O2009       O  0.63139551  0.57530857  0.36621930    -0.85930
C2010       C  0.61387354  0.59295544  0.37107854     1.01780
O2011       O  0.59601699  0.59841860  0.35554041    -0.78690
O2012       O  0.66253465  0.66222774  0.34107101    -0.78880
C2013       C  0.69213786  0.68335635  0.32949160     1.01730
O2014       O  0.64864900  0.61730461  0.27640141    -0.86200
O2015       O  0.66514586  0.56167769  0.28800709    -0.83270
C2016       C  0.63566979  0.52878208  0.29013121     0.97280
O2017       O  0.61218157  0.02090706  0.30642285    -0.83290
O2018       O  0.56948150  0.53762732  0.33403749    -0.85900
C2019       C  0.55626786  0.54736826  0.31770625     1.01750
O2020       O  0.57477612  0.58067525  0.30901761    -0.78720
O2021       O  0.63441464  0.65225569  0.29686598    -0.78870
C2022       C  0.63131465  0.63601519  0.27825181     1.01710
Cr2023     Cr  0.68065225  0.61245050  0.30183859     1.93740
Cr2024     Cr  0.62214732  0.54956197  0.33561197     1.93210
Cr2025     Cr  0.61842414  0.62130869  0.32539576     1.39100
O2026       O  0.64187633  0.59477240  0.32134497    -1.23960
O2027       O  0.96392384  0.66786663  0.18268497    -0.86210
O2028       O  0.88718612  0.59885455  0.18921401    -0.83250
C2029       C  0.87003641  0.58416858  0.17040868     0.97260
O2030       O  0.88931792  0.58313600  0.15401103    -0.83290
O2031       O  0.93748809  0.56842593  0.12901210    -0.85930
C2032       C  0.96222093  0.60142856  0.12119391     1.01780
O2033       O  0.98135274  0.62871588  0.13472061    -0.78690
O2034       O  0.01666657  0.66879482  0.17334509    -0.78880
C2035       C  0.99872051  0.68634466  0.17642810     1.01730
O2036       O  0.99510058  0.63260153  0.21330512    -0.86200
O2037       O  0.92309236  0.56746863  0.21621952    -0.83270
C2038       C  0.89373917  0.53651821  0.21040173     0.97280
O2039       O  0.88332776  0.03020289  0.18973657    -0.83290
O2040       O  0.93796116  0.52236608  0.16737006    -0.85900
C2041       C  0.97047171  0.53322256  0.15930894     1.01750
O2042       O  0.98951535  0.56612483  0.15015430    -0.78720
O2043       O  0.51722480  0.60390261  0.19121276    -0.78870
C2044       C  0.01891108  0.62096076  0.20967642     1.01710
Cr2045     Cr  0.94293848  0.61593949  0.19850626     1.93740
Cr2046     Cr  0.91432098  0.55380226  0.16083854     1.93210
Cr2047     Cr  0.99785645  0.61533870  0.16313101     1.39100
O2048       O  0.95165714  0.59479656  0.17451037    -1.23960
O2049       O  0.68756994  0.94557762  0.15315145    -0.86210
O2050       O  0.61991654  0.86810159  0.14530604    -0.83250
C2051       C  0.60277677  0.85047368  0.16372227     0.97260
O2052       O  0.59771421  0.86928599  0.17892270    -0.83290
O2053       O  0.58271873  0.91884569  0.20107416    -0.85930
C2054       C  0.61418487  0.94299622  0.20997128     1.01780
O2055       O  0.64290039  0.96322852  0.19741918    -0.78690
O2056       O  0.68816733  0.99953338  0.15972631    -0.78880
C2057       C  0.70569502  0.98113316  0.15889124     1.01730
O2058       O  0.65682505  0.97695246  0.11901616    -0.86200
O2059       O  0.59382740  0.90543607  0.11513179    -0.83270
C2060       C  0.56151562  0.87693893  0.11987192     0.97280
O2061       O  0.55184396  0.86617987  0.14038012    -0.83290
O2062       O  0.54374709  0.92263241  0.16037477    -0.85900
C2063       C  0.55413177  0.95544688  0.16845847     1.01750
O2064       O  0.58503067  0.97322243  0.17886191    -0.78720
O2065       O  0.62614778  0.99969555  0.13860300    -0.78870
C2066       C  0.64266484  0.99914121  0.12039529     1.01710
Cr2067     Cr  0.63862823  0.92459591  0.13496538     1.93740
Cr2068     Cr  0.57193448  0.89659266  0.16937866     1.93210
Cr2069     Cr  0.63427893  0.98069872  0.16790163     1.39100
O2070       O  0.61486092  0.93378711  0.15715048    -1.23960
O2071       O  0.68339077  0.69017158  0.01024446    -0.86210
O2072       O  0.61572110  0.70079873  0.01573828    -0.83250
C2073       C  0.59911116  0.69967339  0.99698884     0.97260
O2074       O  0.59606607  0.67548833  0.98240834    -0.83290
O2075       O  0.57790897  0.60577463  0.96344086    -0.85930
C2076       C  0.60924286  0.61178024  0.95500553     1.01780
O2077       O  0.63686613  0.61941010  0.96777585    -0.78690
O2078       O  0.68174524  0.63510365  0.00539642    -0.78880
C2079       C  0.70060109  0.67157866  0.00564844     1.01730
O2080       O  0.65092584  0.63151027  0.04655401    -0.86200
O2081       O  0.58738892  0.63870474  0.04813730    -0.83270
C2082       C  0.55522977  0.63334187  0.04239957     0.97280
O2083       O  0.54816852  0.63664630  0.02178243    -0.83290
O2084       O  0.53713028  0.56964455  0.00529434    -0.85900
C2085       C  0.54563661  0.54450956  0.00051425     1.01750
O2086       O  0.57686598  0.55350906  0.99089787    -0.78720
O2087       O  0.61929926  0.57527363  0.02951544    -0.78870
C2088       C  0.63711997  0.59483715  0.04663544     1.01710
Cr2089     Cr  0.63339211  0.66369550  0.02836334     1.93740
Cr2090     Cr  0.56792341  0.62255938  0.99394024     1.93210
Cr2091     Cr  0.62738640  0.59813122  0.99889890     1.39100
O2092       O  0.60962026  0.62824138  0.00718999    -1.23960
O2093       O  0.97940671  0.79625259  0.02671290    -0.86210
O2094       O  0.01279119  0.79514956  0.98677262    -0.83250
C2095       C  0.99433203  0.75894014  0.98534586     0.97260
O2096       O  0.95900366  0.74215612  0.98046040    -0.83290
O2097       O  0.88208909  0.73420287  0.97664497    -0.85930
C2098       C  0.86532364  0.73123365  0.99576375     1.01780
O2099       O  0.88511389  0.75081785  0.01220362    -0.78690
O2100       O  0.93868267  0.81322565  0.03743065    -0.78880
C2101       C  0.96483749  0.80588622  0.04238456     1.01730
O2102       O  0.99063694  0.87103517  0.01483318    -0.86200
O2103       O  0.51174802  0.86161888  0.97201412    -0.83270
C2104       C  0.01185674  0.84697515  0.95303178     0.97280
O2105       O  0.98851601  0.81073296  0.94979016    -0.83290
O2106       O  0.91708052  0.80280809  0.95021772    -0.85900
C2107       C  0.88999841  0.80662223  0.95774845     1.01750
O2108       O  0.88104503  0.80224874  0.97882106    -0.78720
O2109       O  0.93684997  0.86221686  0.00182456    -0.78870
C2110       C  0.96903353  0.88403992  0.01009102     1.01710
Cr2111     Cr  0.99522682  0.82920133  0.99957327     1.93740
Cr2112     Cr  0.93742168  0.77369097  0.96613193     1.93210
Cr2113     Cr  0.91256758  0.80640164  0.00653831     1.39100
O2114       O  0.94813615  0.80352372  0.99031694    -1.23960
O2115       O  0.70007748  0.48092071  0.85455845    -0.86210
O2116       O  0.72183008  0.56104812  0.84232492    -0.83250
C2117       C  0.71546293  0.58662319  0.83369900     0.97260
O2118       O  0.68222890  0.57914538  0.82983591    -0.83290
O2119       O  0.65111605  0.52409219  0.79564089    -0.85930
C2120       C  0.63413949  0.49037066  0.78730590     1.01780
O2121       O  0.61620926  0.96085867  0.79994442    -0.78690
O2122       O  0.66993975  0.95408963  0.82295410    -0.78880
C2123       C  0.69407249  0.95836590  0.83765568     1.01730
O2124       O  0.64150313  0.98075992  0.88454279    -0.86200
O2125       O  0.66672305  0.55647410  0.87398123    -0.83270
C2126       C  0.63561419  0.55629185  0.87218366     0.97280
O2127       O  0.61446242  0.54141577  0.85509037    -0.83290
O2128       O  0.58153281  0.49310567  0.81902904    -0.85900
C2129       C  0.56066618  0.96393712  0.83089754     1.01750
O2130       O  0.57377283  0.94609695  0.84164485    -0.78720
O2131       O  0.62387284  0.93063265  0.86311959    -0.78870
C2132       C  0.62143129  0.94454814  0.88182417     1.01710
Cr2133     Cr  0.68065437  0.51830231  0.86205241     1.93740
Cr2134     Cr  0.63372466  0.53218705  0.82597536     1.93210
Cr2135     Cr  0.62276518  0.95172929  0.83245163     1.39100
O2136       O  0.64676496  0.50119662  0.83980386    -1.23960
C2137       C  0.53815847  0.85784186  0.91296460    -0.10010
C2138       C  0.54069768  0.87214255  0.93515656     0.06180
C2139       C  0.57113865  0.91032371  0.93968719    -0.03780
C2140       C  0.59710051  0.93265797  0.92231406    -0.08230
C2141       C  0.59438765  0.91841916  0.90009657     0.05300
C2142       C  0.56414194  0.88023832  0.89560197    -0.03260
Br2143     Br  0.55447741  0.85661150  0.86598417    -0.02950
H2144       H  0.51530931  0.82901333  0.90888494     0.09210
H2145       H  0.61968884  0.96167207  0.92629071     0.07230
Br2146     Br  0.58049982  0.93481957  0.96909804    -0.03380
C2147       C  0.65270187  0.61061837  0.89849315    -0.10010
C2148       C  0.62491785  0.57429817  0.89037541     0.06180
C2149       C  0.58946744  0.55396893  0.90173111    -0.03780
C2150       C  0.58317518  0.56921659  0.92164470    -0.08230
C2151       C  0.61221695  0.60393017  0.93082369     0.05300
C2152       C  0.64664976  0.62551860  0.91859248    -0.03260
Br2153     Br  0.68694302  0.67450817  0.92921018    -0.02950
H2154       H  0.67992872  0.62660998  0.88973994     0.09210
H2155       H  0.55691755  0.55197327  0.93116610     0.07230
Br2156     Br  0.55131640  0.50254859  0.89321655    -0.03380
C2157       C  0.54162476  0.75108221  0.00821918    -0.10010
C2158       C  0.01669877  0.73907130  0.98941169     0.06180
C2159       C  0.02053812  0.71580822  0.97291590    -0.03780
C2160       C  0.54877428  0.70546192  0.97526025    -0.08230
C2161       C  0.57397003  0.71734992  0.99412445     0.05300
C2162       C  0.56951005  0.74030017  0.01085777    -0.03260
Br2163     Br  0.60055555  0.75867115  0.03761130    -0.02950
H2164       H  0.53987250  0.76987207  0.02088508     0.09210
H2165       H  0.55051630  0.68733779  0.96215065     0.07230
Br2166     Br  0.98938110  0.69935725  0.94619005    -0.03380
C2167       C  0.75643255  0.66668309  0.99095742    -0.10010
C2168       C  0.74300813  0.68974471  0.00130490     0.06180
C2169       C  0.77068054  0.72670745  0.00905548    -0.03780
C2170       C  0.80976211  0.73868378  0.00738580    -0.08230
C2171       C  0.82293928  0.71522429  0.99748749     0.05300
C2172       C  0.79553038  0.67904192  0.98894460    -0.03260
Br2173     Br  0.81000351  0.64473544  0.97541687    -0.02950
H2174       H  0.73625780  0.63818826  0.98460695     0.09210
H2175       H  0.83021203  0.76705050  0.01378234     0.07230
Br2176     Br  0.75726666  0.76184306  0.02265587    -0.03380
C2177       C  0.53503652  0.98828166  0.02208751    -0.10010
C2178       C  0.52059807  0.50472987  0.00705146     0.06180
C2179       C  0.98461208  0.98220647  0.99734544    -0.03780
C2180       C  0.96581719  0.94223610  0.00032799    -0.08230
C2181       C  0.98265401  0.92512696  0.01317369     0.05300
C2182       C  0.51598879  0.94872372  0.02570064    -0.03260
Br2183     Br  0.53828578  0.92955427  0.04723000    -0.02950
H2184       H  0.56202226  0.50615192  0.03045194     0.09210
H2185       H  0.93962281  0.92452737  0.99113724     0.07230
Br2186     Br  0.96240011  0.50418356  0.97800708    -0.03380
C2187       C  0.64668093  0.54143165  0.06078775    -0.10010
C2188       C  0.64284712  0.57373520  0.06592397     0.06180
C2189       C  0.64139629  0.58242273  0.08908740    -0.03780
C2190       C  0.64292627  0.55864933  0.10630473    -0.08230
C2191       C  0.64573337  0.52564171  0.10120462     0.05300
C2192       C  0.64825121  0.51768847  0.07796288    -0.03260
Br2193     Br  0.65112626  0.97355775  0.06817054    -0.02950
H2194       H  0.64771157  0.53401040  0.04309944     0.09210
H2195       H  0.64109715  0.56573687  0.12391195     0.07230
Br2196     Br  0.63372614  0.62401614  0.09830672    -0.03380
C2197       C  0.99611665  0.84166695  0.10324383    -0.10010
C2198       C  0.53543384  0.85534375  0.10110103     0.06180
C2199       C  0.54958762  0.84900234  0.08057193    -0.03780
C2200       C  0.52491034  0.82980253  0.06282343    -0.08230
C2201       C  0.98598553  0.81808686  0.06415628     0.05300
C2202       C  0.97144281  0.82385229  0.08476585    -0.03260
Br2203     Br  0.91874966  0.80830571  0.08855701    -0.02950
H2204       H  0.98484914  0.84629162  0.11898593     0.09210
H2205       H  0.53725156  0.82629679  0.04719286     0.07230
Br2206     Br  0.60245216  0.86621896  0.07490467    -0.03380
C2207       C  0.98581122  0.57844379  0.08998421    -0.10010
C2208       C  0.97601827  0.60559158  0.09749363     0.06180
C2209       C  0.98877327  0.64013967  0.08490010    -0.03780
C2210       C  0.01290193  0.64799725  0.06593499    -0.08230
C2211       C  0.52550032  0.62234781  0.05992903     0.05300
C2212       C  0.51098869  0.58691998  0.07170202    -0.03260
Br2213     Br  0.52656641  0.55016230  0.06442847    -0.02950
H2214       H  0.47678242  0.55205056  0.09968915     0.09210
H2215       H  0.02356213  0.67510454  0.05671845     0.07230
Br2216     Br  0.97528157  0.67791360  0.09362459    -0.03380
C2217       C  0.76134210  0.53735415  0.17781723    -0.10010
C2218       C  0.74759848  0.00391051  0.16400096     0.06180
C2219       C  0.77470527  0.99680519  0.15352677    -0.03780
C2220       C  0.81379142  0.02357569  0.15590289    -0.08230
C2221       C  0.82755039  0.55779109  0.16896835     0.05300
C2222       C  0.80056472  0.56377656  0.18052807    -0.03260
Br2223     Br  0.81552165  0.60860255  0.19897960    -0.02950
H2224       H  0.74128149  0.54358727  0.18627856     0.09210
H2225       H  0.83377538  0.01730370  0.14737477     0.07230
Br2226     Br  0.76047423  0.95233642  0.13478452    -0.03380
C2227       C  0.03652207  0.74297573  0.15130604    -0.10010
C2228       C  0.02119345  0.72875527  0.17313949     0.06180
C2229       C  0.53701228  0.75349558  0.19189237    -0.03780
C2230       C  0.56595194  0.79206270  0.18849131    -0.08230
C2231       C  0.58046334  0.80721780  0.16646234     0.05300
C2232       C  0.56569082  0.78149444  0.14780168    -0.03260
Br2233     Br  0.58367367  0.79608765  0.11711405    -0.02950
H2234       H  0.02645888  0.72346862  0.13687624     0.09210
H2235       H  0.57666135  0.81063299  0.20330404     0.07230
Br2236     Br  0.52160919  0.73510229  0.22260942    -0.03380
C2237       C  0.99179615  0.95172558  0.16351968    -0.10010
C2238       C  0.53148843  0.97397078  0.16616558     0.06180
C2239       C  0.54981275  0.51472199  0.16652940    -0.03780
C2240       C  0.52848153  0.53220611  0.16421385    -0.08230
C2241       C  0.98905788  0.51056745  0.16166782     0.05300
C2242       C  0.97019535  0.96986939  0.16150968    -0.03260
Br2243     Br  0.91622366  0.93826146  0.15756617    -0.02950
H2244       H  0.97765107  0.92040764  0.16319795     0.09210
H2245       H  0.54322303  0.56351581  0.16442500     0.07230
Br2246     Br  0.60386797  0.54974331  0.16930504    -0.03380
C2247       C  0.60934234  0.63015408  0.23723806    -0.10010
C2248       C  0.60449053  0.63590891  0.26038453     0.06180
C2249       C  0.57265637  0.64018183  0.26621369    -0.03780
C2250       C  0.54541248  0.63505288  0.24970474    -0.08230
C2251       C  0.54957994  0.62796254  0.22671440     0.05300
C2252       C  0.58351458  0.62806155  0.22048828    -0.03260
Br2253     Br  0.59938599  0.63114244  0.18928700    -0.02950
H2254       H  0.63419315  0.62874581  0.23197317     0.09210
H2255       H  0.52072749  0.63677578  0.25496595     0.07230
Br2256     Br  0.56363263  0.65311056  0.29633085    -0.03380
C2257       C  0.59181226  0.97484451  0.26527070    -0.10010
C2258       C  0.62889963  0.99926317  0.27299808     0.06180
C2259       C  0.65940401  0.99728691  0.26278466    -0.03780
C2260       C  0.65278370  0.97394324  0.24381944    -0.08230
C2261       C  0.61640598  0.95328145  0.23424860     0.05300
C2262       C  0.58518138  0.95189316  0.24599393    -0.03260
Br2263     Br  0.53353826  0.92394941  0.23537547    -0.02950
H2264       H  0.56821941  0.97603414  0.27303603     0.09210
H2265       H  0.67689064  0.97462780  0.23533676     0.07230
Br2266     Br  0.71126381  0.52727320  0.27285741    -0.03380
C2267       C  0.83591798  0.00453438  0.23530815    -0.10010
C2268       C  0.87078740  0.00834061  0.22823896     0.06180
C2269       C  0.88573468  0.98870043  0.24020329    -0.03780
C2270       C  0.86681190  0.96703948  0.25955097    -0.08230
C2271       C  0.83341395  0.96543070  0.26786859     0.05300
C2272       C  0.81734789  0.98350905  0.25519993    -0.03260
Br2273     Br  0.77062165  0.98033806  0.26450862    -0.02950
H2274       H  0.82418198  0.01956734  0.22602935     0.09210
H2275       H  0.88000184  0.95365966  0.26904161     0.07230
Br2276     Br  0.93315656  0.99251073  0.23146736    -0.03380
C2277       C  0.71599140  0.74906440  0.31310332    -0.10010
C2278       C  0.70954634  0.72601674  0.33256944     0.06180
C2279       C  0.71108888  0.74254449  0.35418803    -0.03780
C2280       C  0.72064505  0.78160709  0.35596655    -0.08230
C2281       C  0.72853803  0.80523219  0.33646265     0.05300
C2282       C  0.72468656  0.78770572  0.31476808    -0.03260
Br2283     Br  0.72934348  0.81406906  0.28635907    -0.02950
H2284       H  0.71252040  0.73638959  0.29630804     0.09210
H2285       H  0.72408085  0.79406629  0.37281419     0.07230
Br2286     Br  0.70398474  0.71399758  0.38203888    -0.03380
C2287       C  0.76011640  0.56598950  0.34599073    -0.10010
C2288       C  0.72348409  0.54785809  0.33692966     0.06180
C2289       C  0.70353668  0.00633515  0.33501853    -0.03780
C2290       C  0.72045006  0.98492497  0.34129514    -0.08230
C2291       C  0.75686324  0.00285669  0.35006501     0.05300
C2292       C  0.77664531  0.54397889  0.35290265    -0.03260
Br2293     Br  0.82537489  0.57199098  0.36751370    -0.02950
H2294       H  0.77521378  0.59698979  0.34868731     0.09210
H2295       H  0.70518925  0.95385625  0.33876142     0.07230
Br2296     Br  0.65230808  0.97436657  0.32436768    -0.03380
C2297       C  0.95939414  0.96195092  0.31886268    -0.10010
C2298       C  0.93956210  0.98191762  0.32033730     0.06180
C2299       C  0.95853833  0.52255891  0.31678312    -0.03780
C2300       C  0.49643522  0.54200388  0.31140328    -0.08230
C2301       C  0.51695789  0.52299992  0.31238261     0.05300
C2302       C  0.49845695  0.98249514  0.31534886    -0.03260
Br2303     Br  0.52502779  0.95422748  0.31623380    -0.02950
H2304       H  0.94483616  0.93081465  0.32118163     0.09210
H2305       H  0.51075662  0.57321410  0.30979095     0.07230
Br2306     Br  0.93736898  0.55571621  0.32204822    -0.03380
C2307       C  0.91783333  0.55517264  0.39726013    -0.10010
C2308       C  0.88655203  0.51805620  0.40185550     0.06180
C2309       C  0.88018511  0.00490066  0.42480660    -0.03780
C2310       C  0.90417264  0.52868474  0.44229857    -0.08230
C2311       C  0.93507549  0.56619108  0.43782030     0.05300
C2312       C  0.94177861  0.57907879  0.41475459    -0.03260
Br2313     Br  0.98419695  0.62808358  0.40546545    -0.02950
H2314       H  0.92373283  0.56588994  0.37981950     0.09210
H2315       H  0.89848792  0.51752431  0.45964407     0.07230
Br2316     Br  0.84078265  0.95375013  0.43341475    -0.03380
C2317       C  0.60097350  0.64896470  0.41853077    -0.10010
C2318       C  0.59742416  0.62648916  0.43771056     0.06180
C2319       C  0.60514418  0.59601053  0.43553110    -0.03780
C2320       C  0.61345170  0.58689266  0.41381553    -0.08230
C2321       C  0.61262041  0.60694885  0.39422891     0.05300
C2322       C  0.60705252  0.63896094  0.39696135    -0.03260
Br2323     Br  0.60369321  0.66922863  0.37234437    -0.02950
H2324       H  0.59553781  0.67279114  0.42005916     0.09210
H2325       H  0.61765754  0.56234622  0.41205415     0.07230
Br2326     Br  0.60033423  0.56351203  0.46091062    -0.03380
C2327       C  0.83705761  0.80617194  0.41423535    -0.10010
C2328       C  0.86274251  0.83231243  0.43008132     0.06180
C2329       C  0.88419972  0.87198027  0.42423884    -0.03780
C2330       C  0.87381138  0.88559167  0.40540317    -0.08230
C2331       C  0.84493834  0.85992825  0.39096189     0.05300
C2332       C  0.82998348  0.81987795  0.39390443    -0.03260
Br2333     Br  0.80149893  0.78346081  0.37075933    -0.02950
H2334       H  0.82223196  0.77536112  0.41781430     0.09210
H2335       H  0.88760221  0.91654772  0.40236304     0.07230
Br2336     Br  0.92652972  0.90977767  0.44143497    -0.03380
C2337       C  0.66000633  0.69326983  0.50636433    -0.10010
C2338       C  0.64692343  0.71798263  0.49841702     0.06180
C2339       C  0.67409670  0.75528615  0.49108922    -0.03780
C2340       C  0.71309807  0.76772415  0.49277409    -0.08230
C2341       C  0.72647887  0.74357478  0.50158452     0.05300
C2342       C  0.69898908  0.70533910  0.50766809    -0.03260
Br2343     Br  0.71232573  0.66829734  0.51821489    -0.02950
H2344       H  0.63957531  0.66399145  0.51171327     0.09210
H2345       H  0.73313717  0.79718885  0.48756737     0.07230
Br2346     Br  0.65946923  0.79123342  0.48045844    -0.03380
C2347       C  0.95716419  0.72339819  0.48420149    -0.10010
C2348       C  0.94975948  0.69095355  0.49710682     0.06180
C2349       C  0.91567734  0.67244195  0.51044549    -0.03780
C2350       C  0.88949092  0.68559910  0.50988143    -0.08230
C2351       C  0.89634328  0.71758889  0.49651321     0.05300
C2352       C  0.93134290  0.73693629  0.48379723    -0.03260
Br2353     Br  0.94814843  0.78342797  0.46604660    -0.02950
H2354       H  0.48284056  0.73784236  0.47384100     0.09210
H2355       H  0.86401826  0.67123044  0.52041571     0.07230
Br2356     Br  0.90391442  0.63025188  0.53106292    -0.03380
C2357       C  0.94592104  0.98974742  0.50327186    -0.10010
C2358       C  0.98471247  0.50787503  0.50773844     0.06180
C2359       C  0.00309912  0.98635849  0.51016117    -0.03780
C2360       C  0.98177614  0.94629252  0.50763870    -0.08230
C2361       C  0.94279397  0.92840001  0.50267764     0.05300
C2362       C  0.92468497  0.95059559  0.50097552    -0.03260
Br2363     Br  0.87126620  0.93151192  0.49563361    -0.02950
H2364       H  0.93167483  0.00634502  0.50133815     0.09210
H2365       H  0.99564245  0.92931578  0.50919788     0.07230
Br2366     Br  0.55590346  0.50978298  0.51783000    -0.03380
C2367       C  0.83006136  0.89798662  0.55925924    -0.10010
C2368       C  0.83257445  0.86490566  0.56442443     0.06180
C2369       C  0.83745530  0.85827924  0.58754500    -0.03780
C2370       C  0.83943997  0.88409176  0.60463081    -0.08230
C2371       C  0.83678242  0.91719323  0.59943397     0.05300
C2372       C  0.83221844  0.92386818  0.57621448    -0.03260
Br2373     Br  0.83137324  0.96905550  0.56590750    -0.02950
H2374       H  0.82690495  0.90422031  0.54165379     0.09210
H2375       H  0.84335881  0.87822350  0.62218107     0.07230
Br2376     Br  0.84461459  0.81632252  0.59668926    -0.03380
C2377       C  0.96201430  0.62273448  0.60216236    -0.10010
C2378       C  0.95146827  0.58524092  0.60953021     0.06180
C2379       C  0.96839071  0.56574524  0.59932157    -0.03780
C2380       C  0.99301222  0.58244882  0.58067025    -0.08230
C2381       C  0.49997451  0.61791120  0.57147510     0.05300
C2382       C  0.98586825  0.63903330  0.58305225    -0.03260
Br2383     Br  0.99644854  0.68894550  0.57243871    -0.02950
H2384       H  0.94953122  0.63814978  0.61019984     0.09210
H2385       H  0.50339951  0.56569789  0.57190006     0.07230
Br2386     Br  0.95600286  0.51476822  0.60903103    -0.03380
C2387       C  0.47839144  0.79858898  0.58700852    -0.10010
C2388       C  0.49073363  0.83439588  0.59754414     0.06180
C2389       C  0.98162038  0.86097128  0.58762685    -0.03780
C2390       C  0.95755068  0.84975750  0.56884839    -0.08230
C2391       C  0.94291278  0.81284489  0.55954046     0.05300
C2392       C  0.95474376  0.78777717  0.56802312    -0.03260
Br2393     Br  0.43612852  0.73705204  0.55609508    -0.02950
H2394       H  0.48500099  0.77788917  0.59453142     0.09210
H2395       H  0.94879514  0.86931831  0.56209171     0.07230
Br2396     Br  0.99640745  0.91082777  0.60034972    -0.03380
C2397       C  0.70093153  0.94587005  0.64993372    -0.10010
C2398       C  0.72491950  0.93206520  0.65652420     0.06180
C2399       C  0.70770106  0.89403589  0.66639620    -0.03780
C2400       C  0.66804675  0.87163710  0.66945003    -0.08230
C2401       C  0.64413057  0.88498389  0.66210288     0.05300
C2402       C  0.66120259  0.92286714  0.65229147    -0.03260
Br2403     Br  0.63268067  0.94643578  0.64210706    -0.02950
H2404       H  0.71304991  0.97446760  0.64236390     0.09210
H2405       H  0.65571673  0.84306669  0.67709970     0.07230
Br2406     Br  0.73539388  0.86923638  0.67622235    -0.03380
C2407       C  0.91594059  0.64419250  0.68529991    -0.10010
C2408       C  0.89410910  0.63085982  0.66506704     0.06180
C2409       C  0.90347090  0.65812025  0.64713414    -0.03780
C2410       C  0.93266272  0.69690825  0.64999576    -0.08230
C2411       C  0.95403713  0.70982684  0.67024921     0.05300
C2412       C  0.94542201  0.68276332  0.68789777    -0.03260
Br2413     Br  0.97152225  0.69779733  0.71651300    -0.02950
H2414       H  0.91042540  0.62438420  0.69938429     0.09210
H2415       H  0.93788080  0.71765354  0.63649138     0.07230
Br2416     Br  0.87707241  0.64521619  0.61857119    -0.03380
C2417       C  0.91572629  0.92462904  0.67025564    -0.10010
C2418       C  0.93653631  0.96486570  0.67259936     0.06180
C2419       C  0.97656057  0.98483124  0.67151118    -0.03780
C2420       C  0.99491370  0.96373008  0.66820171    -0.08230
C2421       C  0.97362089  0.92336144  0.66571859     0.05300
C2422       C  0.93353098  0.90373530  0.66689487    -0.03260
Br2423     Br  0.89979769  0.84849579  0.66481222    -0.02950
H2424       H  0.88485885  0.90885328  0.67065147     0.09210
H2425       H  0.52573062  0.97883911  0.66739726     0.07230
Br2426     Br  0.50743681  0.53989215  0.67494945    -0.03380
C2427       C  0.59799472  0.98051444  0.75250666    -0.10010
C2428       C  0.63031116  0.98318408  0.76273214     0.06180
C2429       C  0.64791157  0.96422510  0.75260672    -0.03780
C2430       C  0.63128090  0.94035496  0.73368819    -0.08230
C2431       C  0.59680075  0.93464647  0.72500929     0.05300
C2432       C  0.58095801  0.95612046  0.73388247    -0.03260
Br2433     Br  0.53418743  0.95022018  0.72258462    -0.02950
H2434       H  0.58356245  0.49400378  0.76055965     0.09210
H2435       H  0.64386669  0.92422108  0.72674783     0.07230
Br2436     Br  0.69186628  0.96633495  0.76596641    -0.03380
C2437       C  0.88286802  0.85317436  0.93356731    -0.10010
C2438       C  0.86808227  0.81502243  0.94120944     0.06180
C2439       C  0.83692994  0.78487882  0.92984221    -0.03780
C2440       C  0.82289680  0.79277616  0.91012039    -0.08230
C2441       C  0.83992694  0.83046617  0.90107720     0.05300
C2442       C  0.86910574  0.86127778  0.91368865    -0.03260
Br2443     Br  0.89530010  0.91431233  0.90350372    -0.02950
H2444       H  0.90706382  0.87648749  0.94218407     0.09210
H2445       H  0.80041891  0.76879631  0.90083819     0.07230
Br2446     Br  0.81542781  0.73185291  0.93879863    -0.03380
C2447       C  0.76899166  0.69208917  0.84554568    -0.10010
C2448       C  0.76198552  0.70621686  0.82516517     0.06180
C2449       C  0.74821612  0.68142561  0.80629554    -0.03780
C2450       C  0.73992276  0.64297716  0.80833906    -0.08230
C2451       C  0.74389467  0.62774121  0.82928171     0.05300
C2452       C  0.75961514  0.65325831  0.84781189    -0.03260
Br2453     Br  0.76534848  0.63551448  0.87715376    -0.02950
H2454       H  0.78165251  0.71143273  0.85989187     0.09210
H2455       H  0.72677874  0.62371601  0.79401032     0.07230
Br2456     Br  0.74032189  0.69892070  0.77740724    -0.03380
C2457       C  0.50681231  0.97353736  0.83764705    -0.10010
C2458       C  0.52082398  0.94964221  0.83037830     0.06180
C2459       C  0.49700639  0.91350341  0.82088311    -0.03780
C2460       C  0.95861704  0.89997555  0.82060429    -0.08230
C2461       C  0.94372583  0.92199202  0.82976094     0.05300
C2462       C  0.96785165  0.95958066  0.83767188    -0.03260
Br2463     Br  0.94895652  0.99066295  0.85070855    -0.02950
H2464       H  0.52604009  0.50234661  0.84403562     0.09210
H2465       H  0.94029914  0.87094167  0.81444599     0.07230
Br2466     Br  0.51544747  0.88181534  0.80794818    -0.03380
C2467       C  0.75085098  0.90738832  0.84947383    -0.10010
C2468       C  0.73373579  0.87539951  0.83447743     0.06180
C2469       C  0.70480442  0.87240654  0.82005296    -0.03780
C2470       C  0.69358221  0.90036621  0.82100964    -0.08230
C2471       C  0.71068845  0.93233549  0.83603527     0.05300
C2472       C  0.74004953  0.93564583  0.85021558    -0.03260
Br2473     Br  0.76822075  0.47888556  0.87011313    -0.02950
H2474       H  0.77413006  0.91153823  0.86027570     0.09210
H2475       H  0.67059277  0.89645328  0.81001857     0.07230
Br2476     Br  0.67855405  0.83033133  0.79918702    -0.03380
C2477       C  0.88023507  0.78128529  0.75882367    -0.10010
C2478       C  0.88250834  0.81619786  0.76544913     0.06180
C2479       C  0.91067667  0.85094734  0.75519847    -0.03780
C2480       C  0.93529309  0.85046821  0.73851387    -0.08230
C2481       C  0.93359892  0.81584594  0.73204453     0.05300
C2482       C  0.90557271  0.78092504  0.74233074    -0.03260
Br2483     Br  0.89957124  0.73207099  0.73350660    -0.02950
H2484       H  0.85915659  0.75433427  0.76676486     0.09210
H2485       H  0.95591830  0.87745907  0.73042524     0.07230
Br2486     Br  0.91616900  0.89996764  0.76306122    -0.03380
C2487       C  0.79065718  0.91966805  0.75940391    -0.10010
C2488       C  0.82228189  0.92725699  0.77255683     0.06180
C2489       C  0.85750687  0.96074614  0.76800612    -0.03780
C2490       C  0.86194743  0.48285968  0.74844859    -0.08230
C2491       C  0.83126346  0.97259440  0.73356802     0.05300
C2492       C  0.79461630  0.94276157  0.74042393    -0.03260
Br2493     Br  0.74899500  0.93199019  0.72474641    -0.02950
H2494       H  0.76292655  0.89514478  0.76362326     0.09210
H2495       H  0.89015009  0.50636300  0.74407099     0.07230
Br2496     Br  0.90100261  0.47582514  0.78694061    -0.03380
loop_ 
_geom_bond_atom_site_label_1 
_geom_bond_atom_site_label_2 
_geom_bond_distance 
_geom_bond_site_symmetry_2 
_ccdc_geom_bond_type 
O1          Cr19   1.970       .  S
O1            C9   1.263       .  A
O2          Cr19   1.959       .  S
O2            C3   1.251       .  A
C3            O4   1.274       .  A
C3          C576   1.478       .  S
O4          Cr20   2.028       .  S
O5          Cr20   2.064       .  S
O5            C6   1.278       .  A
C6            O7   1.251       .  A
C6          C596   1.503       .  S
O7          Cr21   1.946       .  S
O8          Cr21   2.021       .  S
O8            C9   1.269       .  A
C9          C569   1.481       .  S
O10         Cr19   1.957       .  S
O10          C18   1.250       .  A
O11         Cr19   1.969       .  S
O11          C12   1.259       .  A
C12          O13   1.278       .  A
C12         C606   1.489       .  S
O13         Cr20   2.056       .  S
O14         Cr20   1.981       .  S
O14          C15   1.263       .  A
C15          O16   1.264       .  A
C15         C616   1.469       .  S
O16         Cr21   2.011       .  S
O17         Cr21   1.970       .  S
O17          C18   1.251       .  A
C18         C589   1.433       .  S
Cr19         O22   1.757       .  S
Cr20         O22   1.772       .  S
Cr21         O22   1.775       .  S
O23         Cr41   2.039       .  S
O23          C31   1.276   1_455  A
O24         Cr41   2.077       .  S
O24          C25   1.282       .  A
C25          O26   1.247       .  A
C25         C529   1.497       .  S
O26         Cr42   1.939       .  S
O27         Cr42   2.016       .  S
O27          C28   1.269       .  A
C28        O1277   1.261   1_455  A
C28         C516   1.465   1_455  S
O29         Cr43   1.962       .  S
O29        C1276   1.261       .  A
O30         Cr43   1.972       .  S
O30        C1279   1.255       .  A
C31        O1278   1.255       .  A
C31        C1787   1.491       .  S
O32         Cr41   2.062   1_655  S
O32        C1288   1.281       .  A
O33         Cr41   1.985       .  S
O33          C34   1.262       .  A
C34          O35   1.262       .  A
C34         C559   1.467       .  S
O35         Cr42   2.009       .  S
O36         Cr42   1.963       .  S
O36        C1285   1.252   1_455  A
C37          O38   1.249       .  A
C37        O1284   1.252       .  A
C37         C549   1.445       .  S
O38         Cr43   1.966       .  S
O39         Cr43   1.966       .  S
O39          C40   1.259       .  A
C40        O1280   1.281       .  A
C40         C609   1.491       .  S
Cr41         O44   1.765       .  S
Cr42         O44   1.771       .  S
Cr43       O1292   1.752       .  S
O44       Cr1291   1.752   1_455  S
O45         Cr63   2.047   1_565  S
O45         C677   1.280       .  A
O46         Cr63   2.072       .  S
O46          C47   1.276       .  A
C47          O48   1.249       .  A
C47         C536   1.514       .  S
O48         Cr64   1.945       .  S
O49         Cr64   2.028       .  S
O49          C50   1.274   1_545  A
C50         O675   1.261       .  A
C50        C1243   1.485       .  S
O51         Cr65   1.969       .  S
O51         C674   1.261       .  A
O52         Cr65   1.969       .  S
O52          C53   1.251       .  A
C53         O669   1.280       .  A
C53         C526   1.502       .  S
O54        Cr687   2.055       .  S
O54          C62   1.281       .  A
O55         Cr63   1.974       .  S
O55          C56   1.263       .  A
C56          O57   1.268       .  A
C56         C506   1.466       .  S
O57         Cr64   2.021       .  S
O58         Cr64   1.963       .  S
O58         C683   1.249   1_545  A
C59          O60   1.253       .  A
C59         O682   1.249       .  A
C59         C546   1.447       .  S
O60         Cr65   1.966       .  S
O61         Cr65   1.988       .  S
O61          C62   1.268       .  A
C62         C499   1.510       .  S
Cr63        O678   2.055   1_545  S
Cr63         O66   1.761       .  S
Cr64         O66   1.770       .  S
Cr65        O690   1.753       .  S
O66        Cr689   1.753   1_545  S
O67         Cr85   2.041       .  S
O67          C75   1.278       .  A
O68         Cr85   2.081       .  S
O68          C69   1.282       .  A
C69          O70   1.245       .  A
C69         C479   1.503       .  S
O70         Cr86   1.942       .  S
O71         Cr86   2.013       .  S
O71          C72   1.265       .  A
C72          O73   1.265       .  A
C72         C456   1.464       .  S
O73         Cr87   1.981       .  S
O74         Cr87   1.967       .  S
O74          C75   1.256       .  A
C75         C469   1.509       .  S
O76         Cr85   2.060       .  S
O76          C84   1.281       .  A
O77         Cr85   1.975       .  S
O77          C78   1.259       .  A
C78          O79   1.260       .  A
C78         C519   1.459       .  S
O79         Cr86   2.006       .  S
O80         Cr86   1.973       .  S
O80          C81   1.253       .  A
C81          O82   1.247       .  A
C81         C489   1.442       .  S
O82         Cr87   1.946       .  S
O83         Cr87   1.973       .  S
O83          C84   1.261       .  A
C84         C496   1.505       .  S
Cr85         O88   1.765       .  S
Cr86         O88   1.773       .  S
Cr87         O88   1.747       .  S
O89        Cr107   1.968       .  S
O89        C1345   1.262       .  A
O90        Cr107   1.969       .  S
O90        C1339   1.253       .  A
C91          O92   1.277   1_655  A
C91        O1338   1.253       .  A
C91        C1724   1.493       .  S
O92        Cr108   2.033       .  S
O93        Cr108   2.076       .  S
O93          C94   1.277       .  A
C94          O95   1.245       .  A
C94         C466   1.498       .  S
O95        Cr109   1.937       .  S
O96        Cr109   2.032       .  S
O96          C97   1.275       .  A
C97        O1337   1.262   1_455  A
C97         C509   1.472   1_455  S
O98        Cr107   1.966       .  S
O98         C106   1.253       .  A
O99        Cr107   1.991       .  S
O99         C100   1.269       .  A
C100       O1349   1.281       .  A
C100        C439   1.511       .  S
O101       Cr108   2.052   1_655  S
O101       C1348   1.281       .  A
O102       Cr108   1.944       .  S
O102        C103   1.258       .  A
C103        O104   1.270       .  A
C103        C446   1.472       .  S
O104       Cr109   2.035       .  S
O105       Cr109   1.956       .  S
O105       C1354   1.248       .  A
C106       O1353   1.248       .  A
C106        C486   1.434       .  S
Cr107      O1358   1.749       .  S
Cr108       O110   1.762       .  S
Cr109       O110   1.775       .  S
O110      Cr1355   1.749   1_455  S
O111       Cr129   1.995       .  S
O111        C119   1.272       .  A
O112       Cr129   1.946       .  S
O112        C113   1.245       .  A
C113        O114   1.280       .  A
C113        C419   1.487       .  S
O114       Cr130   2.038       .  S
O115       Cr130   2.069       .  S
O115        C116   1.279       .  A
C116        O117   1.249       .  A
C116        C409   1.506       .  S
O117       Cr131   1.944       .  S
O118       Cr131   2.003       .  S
O118        C119   1.271       .  A
C119        C399   1.480       .  S
O120       Cr129   1.923       .  S
O120        C128   1.234       .  A
O121       Cr129   1.998       .  S
O121        C122   1.270       .  A
C122        O123   1.278       .  A
C122       C1060   1.507       .  S
O123       Cr130   2.043       .  S
O124       Cr130   1.967       .  S
O124        C125   1.260       .  A
C125        O126   1.261       .  A
C125        C459   1.467       .  S
O126       Cr131   2.004       .  S
O127       Cr131   1.987       .  S
O127        C128   1.256       .  A
C128        C426   1.434       .  S
Cr129       O132   1.758       .  S
Cr130       O132   1.762       .  S
Cr131       O132   1.773       .  S
O133       Cr151   2.076       .  S
O133        C141   1.289       .  A
O134       Cr151   2.062       .  S
O134        C135   1.287       .  A
C135        O136   1.240       .  A
C135        C416   1.498       .  S
O136       Cr152   1.902       .  S
O137       Cr152   2.010       .  S
O137        C138   1.262       .  A
C138        O139   1.253       .  A
C138        C449   1.478       .  S
O139       Cr153   1.978       .  S
O140       Cr153   1.951       .  S
O140        C141   1.258       .  A
C141        C406   1.493       .  S
O142       Cr151   2.056       .  S
O142        C150   1.265       .  A
O143       Cr151   1.975       .  S
O143        C144   1.261       .  A
C144        O769   1.265       .  A
C144       C1010   1.469   1_545  S
O145       Cr776   1.987       .  S
O145        C768   1.265       .  A
O146       Cr152   1.948       .  S
O146        C147   1.253       .  A
C147        O148   1.257       .  A
C147        C429   1.428       .  S
O148       Cr153   1.957       .  S
O149       Cr153   1.977       .  S
O149        C150   1.244       .  A
C150        C376   1.515       .  S
Cr151       O154   1.772       .  S
Cr152       O769   1.987       .  S
Cr152       O154   1.770       .  S
Cr153       O154   1.764       .  S
O155       Cr173   2.023       .  S
O155        C163   1.273       .  A
O156       Cr173   2.088       .  S
O156        C157   1.282       .  A
C157        O158   1.249       .  A
C157        C349   1.507       .  S
O158       Cr174   1.943       .  S
O159       Cr174   2.029       .  S
O159        C160   1.271       .  A
C160        O161   1.257       .  A
C160        C336   1.470       .  S
O161       Cr175   1.968       .  S
O162       Cr175   1.969       .  S
O162        C163   1.254       .  A
C163        C356   1.477       .  S
O164       Cr173   2.073       .  S
O164        C172   1.285       .  A
O165       Cr173   1.972       .  S
O165        C166   1.261       .  A
C166        O791   1.267       .  A
C166       C1020   1.467       .  S
O167       Cr798   2.026       .  S
O167        C790   1.267       .  A
O168       Cr174   1.968       .  S
O168        C169   1.253       .  A
C169        O170   1.258       .  A
C169        C369   1.450       .  S
O170       Cr175   1.976       .  S
O171      Cr1423   1.977   1_455  S
O171       C1420   1.263       .  A
C172       O1419   1.263       .  A
C172       C1627   1.515       .  S
Cr173       O176   1.765       .  S
Cr174       O791   2.026       .  S
Cr174       O176   1.774       .  S
Cr175      O1419   1.977       .  S
Cr175       O176   1.753       .  S
O177       Cr195   2.036       .  S
O177        C185   1.276       .  A
O178       Cr195   2.075       .  S
O178        C179   1.279       .  A
C179        O180   1.248       .  A
C179        C359   1.502       .  S
O180       Cr196   1.940       .  S
O181       Cr196   2.013       .  S
O181        C182   1.267       .  A
C182        O183   1.262       .  A
C182        C389   1.471       .  S
O183       Cr197   1.961       .  S
O184       Cr197   1.980       .  S
O184        C185   1.257       .  A
C185        C346   1.505       .  S
O186       Cr195   2.055       .  S
O186        C194   1.281       .  A
O187       Cr195   1.969       .  S
O187        C188   1.260       .  A
C188        O189   1.266       .  A
C188        C326   1.475       .  S
O189       Cr196   2.014       .  S
O190       Cr196   1.971       .  S
O190        C191   1.254       .  A
C191        O192   1.252       .  A
C191        C366   1.450       .  S
O192       Cr197   1.972       .  S
O193       Cr197   1.970       .  S
O193        C194   1.262       .  A
C194        C943   1.503       .  S
Cr195       O198   1.761       .  S
Cr196       O198   1.770       .  S
Cr197       O198   1.749       .  S
O199       Cr217   2.044       .  S
O199        C207   1.280       .  A
O200       Cr217   2.084       .  S
O200        C201   1.281   1_554  A
C201        O202   1.251       .  A
C201        C289   1.518       .  S
O202       Cr218   1.946       .  S
O203       Cr218   2.019       .  S
O203        C204   1.268       .  A
C204        O205   1.257       .  A
C204        C279   1.468       .  S
O205       Cr219   1.961       .  S
O206       Cr219   1.984   1_554  S
O206        C207   1.260       .  A
C207        C296   1.515       .  S
O208       Cr217   2.056       .  S
O208        C216   1.279       .  A
O209       Cr217   1.980       .  S
O209        C210   1.262       .  A
C210        O211   1.264       .  A
C210        C339   1.468       .  S
O211       Cr218   2.016   1_554  S
O212       Cr218   1.949   1_554  S
O212        C213   1.249       .  A
C213        O214   1.260   1_554  A
C213        C306   1.440       .  S
O214       Cr219   1.986       .  S
O215       Cr219   1.959   1_554  S
O215        C216   1.258       .  A
C216        C316   1.496       .  S
Cr217       O220   1.767       .  S
Cr218       O220   1.777   1_556  S
Cr219       O220   1.756   1_556  S
O221       Cr239   1.948   1_554  S
O221        C229   1.251       .  A
O222       Cr239   1.976       .  S
O222        C223   1.254       .  A
C223        O224   1.277       .  A
C223        C286   1.499       .  S
O224       Cr240   2.046       .  S
O225       Cr240   2.081       .  S
O225        C226   1.280       .  A
C226        O227   1.251   1_556  A
C226        C299   1.509       .  S
O227       Cr241   1.946       .  S
O228       Cr241   2.051       .  S
O228        C229   1.273       .  A
C229        C329   1.482       .  S
O230       Cr239   1.988   1_554  S
O230        C238   1.258       .  A
O231      Cr1487   1.958   1_455  S
O231       C1480   1.258       .  A
C232        O233   1.286       .  A
C232       O1479   1.258       .  A
C232       C1514   1.508       .  S
O233       Cr240   2.072       .  S
O234       Cr240   1.971       .  S
O234        C235   1.263       .  A
C235        O236   1.270       .  A
C235        C566   1.468       .  S
O236       Cr241   2.029   1_556  S
O237       Cr241   1.951       .  S
O237        C238   1.252       .  A
C238        C309   1.458       .  S
Cr239      O1479   1.958       .  S
Cr239       O242   1.746       .  S
Cr240       O242   1.763       .  S
Cr241       O242   1.777   1_554  S
O243       Cr261   2.059   1_565  S
O243        C875   1.280       .  A
O244       Cr261   2.035       .  S
O244        C245   1.279       .  A
C245        O246   1.251       .  A
C245        C579   1.478       .  S
O246       Cr262   1.934       .  S
O247       Cr262   1.994       .  S
O247        C248   1.266   1_545  A
C248        O873   1.262       .  A
C248       C1180   1.461       .  S
O249       Cr263   1.982       .  S
O249        C872   1.262       .  A
O250       Cr263   1.950       .  S
O250        C251   1.255       .  A
C251        O867   1.280       .  A
C251        C599   1.503       .  S
O252       Cr885   2.019       .  S
O252        C260   1.265       .  A
O253       Cr261   2.003       .  S
O253        C254   1.266       .  A
C254        O255   1.262       .  A
C254        C276   1.468       .  S
O255       Cr262   1.983       .  S
O256       Cr262   1.945   1_565  S
O256        C881   1.246       .  A
C257        O258   1.255       .  A
C257        O880   1.246       .  A
C257        C586   1.421       .  S
O258       Cr263   1.960       .  S
O259       Cr263   1.992       .  S
O259        C260   1.255       .  A
C260        C269   1.505       .  S
Cr261       O876   2.019   1_545  S
Cr261       O264   1.772       .  S
Cr262       O264   1.771       .  S
Cr263       O888   1.765       .  S
O264       Cr887   1.765   1_545  S
C265        C266   1.404       .  A
C265        C270   1.407       .  A
C265        H272   1.083       .  S
C266       C1480   1.508       .  S
C266        C267   1.426       .  A
C267        C268   1.406       .  A
C267       Br274   1.926       .  S
C268        C269   1.404       .  A
C268        H273   1.083       .  S
C269        C270   1.423       .  A
C270       Br271   1.922       .  S
C275        C276   1.403       .  A
C275        C280   1.396       .  A
C275        H282   1.084       .  S
C276        C277   1.409       .  A
C277        C278   1.398       .  A
C277       Br284   1.919       .  S
C278        C279   1.403       .  A
C278        H283   1.084       .  S
C279        C280   1.409       .  A
C280       Br281   1.921       .  S
C285        C290   1.411       .  A
C285       C1534   1.413   1_554  A
C285        H292   1.084       .  S
C286        C287   1.404       .  A
C286       C1533   1.413   1_556  A
C287       C1536   1.410       .  A
C287       Br294   1.917       .  S
C288        C289   1.422       .  A
C288       C1535   1.410       .  A
C288        H293   1.083       .  S
C289        C290   1.416   1_556  A
C290       Br291   1.919       .  S
C295        C296   1.422   1_556  A
C295        C300   1.411       .  A
C295        H302   1.083       .  S
C296        C297   1.411       .  A
C297        C298   1.412       .  A
C297       Br304   1.918       .  S
C298        C299   1.417   1_554  A
C298        H303   1.083       .  S
C299        C300   1.404       .  A
C300       Br301   1.916       .  S
C305        C310   1.382       .  A
C305        C930   1.395       .  A
C305        H936   1.083       .  S
C306        C929   1.395   1_545  A
C306       C2179   1.400   1_444  A
C307        C308   1.391   1_556  A
C307       C2178   1.400   1_556  A
C307       Br938   1.918       .  S
C308        C309   1.407       .  A
C308        H313   1.084   1_554  S
C309       C1558   1.411       .  A
C310       C1557   1.411   1_455  A
C310       Br311   1.926       .  S
H312        C929   1.083   1_545  S
Br314       C931   1.918   1_545  S
C315        C316   1.410       .  A
C315        C320   1.405       .  A
C315        H322   1.084       .  S
C316        C317   1.409       .  A
C317        C318   1.407       .  A
C317       Br324   1.919       .  S
C318        C319   1.414       .  A
C318        H323   1.082       .  S
C319        C818   1.503   1_545  S
C319        C320   1.413       .  A
C320       Br945   1.917   1_545  S
Br321       C944   1.917       .  S
C325        C330   1.408       .  A
C325       C1574   1.409       .  A
C325        H332   1.084       .  S
C326        C327   1.407       .  A
C326       C1573   1.409   1_455  A
C327        C328   1.384       .  A
C327       Br334   1.924       .  S
C328       C1577   1.408   1_455  A
C328        H333   1.084       .  S
C329        C330   1.410       .  A
C329       C1576   1.408       .  A
C330       Br331   1.918       .  S
C335        C336   1.402       .  A
C335       C1588   1.394       .  A
C335       H1590   1.084       .  S
C336        C337   1.410       .  A
C337        C338   1.403       .  A
C337       Br344   1.918       .  S
C338       C1587   1.403       .  A
C338        H343   1.084       .  S
C339        C340   1.406       .  A
C339       C1586   1.403       .  A
C340       C1583   1.394   1_455  A
C340       Br341   1.919       .  S
H342       C1583   1.084       .  S
C345        C350   1.411       .  A
C345        C970   1.420       .  A
C345        H352   1.083       .  S
C346        C347   1.407       .  A
C346        C969   1.420       .  A
C347        C348   1.407       .  A
C347       Br354   1.919       .  S
C348        C973   1.418       .  A
C348        H353   1.083       .  S
C349        C350   1.406       .  A
C349        C972   1.418       .  A
C350       Br351   1.916       .  S
C355        C356   1.405       .  A
C355       C1608   1.405       .  A
C355        H362   1.084       .  S
C356       C1605   1.404       .  A
C357        C358   1.403       .  A
C357       C1604   1.404       .  A
C357       Br364   1.919       .  S
C358        C359   1.416       .  A
C358        H363   1.084       .  S
C359        C360   1.415       .  A
C360       C1603   1.405       .  A
C360       Br361   1.911       .  S
C365        C370   1.398       .  A
C365       C1614   1.406       .  A
C365        H372   1.084       .  S
C366       C1613   1.406   1_455  A
C366        C991   1.410       .  A
C367        C368   1.368       .  A
C367        C990   1.410   1_545  A
C367       Br374   1.929       .  S
C368       C1617   1.395   1_455  A
C368        H373   1.082       .  S
C369       C1616   1.395       .  A
C369        C994   1.406   1_545  A
C370        C993   1.406       .  A
C370       Br371   1.918       .  S
C375        C376   1.404       .  A
C375        C380   1.413       .  A
C375        H382   1.083       .  S
C376        C377   1.428       .  A
C377        C378   1.410       .  A
C377       Br384   1.923       .  S
C378        C379   1.403       .  A
C378        H383   1.083       .  S
C379       C1420   1.515       .  S
C379        C380   1.423       .  A
C380       Br381   1.916       .  S
C385        C386   1.400       .  A
C385        C390   1.396       .  A
C385        H392   1.082       .  S
C386        C768   1.469       .  S
C386        C387   1.411       .  A
C387        C388   1.390       .  A
C387      Br1018   1.922       .  S
C388        C389   1.402       .  A
C388        H393   1.084       .  S
C389        C390   1.416       .  A
C390       Br391   1.923       .  S
Br394      C1011   1.922   1_545  S
C395        C396   1.407       .  A
C395        C400   1.406       .  A
C395        H402   1.084       .  S
C396        C790   1.467       .  S
C396        C397   1.401       .  A
C397        C398   1.392       .  A
C397       Br404   1.922       .  S
C398        C399   1.410       .  A
C398        H403   1.084       .  S
C399        C400   1.407       .  A
C400       Br401   1.915       .  S
C405        C406   1.402       .  A
C405        C410   1.405       .  A
C405        H412   1.084       .  S
C406        C407   1.416       .  A
C407        C408   1.411       .  A
C407       Br414   1.923       .  S
C408        C409   1.408       .  A
C408        H413   1.084       .  S
C409        C410   1.423       .  A
C410       Br411   1.923       .  S
C415        C416   1.396       .  A
C415        C420   1.410       .  A
C415        H422   1.083       .  S
C416       C1041   1.439       .  A
C417        C418   1.392       .  A
C417       C1040   1.439       .  A
C417       Br424   1.923       .  S
C418        C419   1.382       .  A
C418        H423   1.084       .  S
C419       C1044   1.431       .  A
C420       C1043   1.431       .  A
C420       Br421   1.924       .  S
C425        C426   1.394       .  A
C425       C1678   1.386       .  A
C425        H432   1.084       .  S
C426       C1051   1.419       .  A
C427       C1050   1.419   1_545  A
C427       C1676   1.365       .  A
C427       Br434   1.935       .  S
C428        C429   1.385   1_655  A
C428       C1675   1.365       .  A
C428        H433   1.083   1_655  S
C429       C1054   1.410   1_445  A
C430       C1673   1.386       .  A
C430       C1053   1.410   1_655  A
C430       Br431   1.919   1_655  S
C435        C436   1.409       .  A
C435        C440   1.411       .  A
C435        H442   1.084       .  S
C436        C746   1.507   1_545  S
C436       C1061   1.416       .  A
C437       C1060   1.416       .  A
C437       C1062   1.409       .  A
C437       Br444   1.920       .  S
C438        C439   1.411       .  A
C438       C1061   1.409       .  A
C438        H443   1.084       .  S
C439        C440   1.419       .  A
C440       Br441   1.920       .  S
C445        C446   1.397       .  A
C445        C450   1.383       .  A
C445        H452   1.085       .  S
C446        C447   1.410       .  A
C447        C448   1.409       .  A
C447       Br454   1.915       .  S
C448        C449   1.408       .  A
C448        H453   1.083       .  S
C449        C450   1.417       .  A
C450       Br451   1.929       .  S
C455        C456   1.400       .  A
C455        C460   1.400       .  A
C455        H462   1.084       .  S
C456        C457   1.412       .  A
C457        C458   1.388       .  A
C457       Br464   1.915       .  S
C458        C459   1.396       .  A
C458        H463   1.085       .  S
C459        C460   1.407       .  A
C460       Br461   1.905       .  S
C465        C466   1.417       .  A
C465        C470   1.408       .  A
C465        H472   1.083       .  S
C466        C467   1.400       .  A
C467        C468   1.407       .  A
C467       Br474   1.916       .  S
C468        C469   1.423       .  A
C468        H473   1.083       .  S
C469        C470   1.408       .  A
C470       Br471   1.918       .  S
C475        C476   1.394       .  A
C475        C480   1.404       .  A
C475       H1730   1.083       .  S
C476       C1339   1.493       .  S
C476        C477   1.424       .  A
C477        C478   1.406       .  A
C477       Br484   1.924       .  S
C478        C479   1.400       .  A
C478        H483   1.083       .  S
C479        C480   1.432       .  A
C480       Br481   1.925       .  S
H482       C1723   1.083       .  S
C485        C490   1.362       .  A
C485       C1110   1.391       .  A
C485        H492   1.085       .  S
C486       C1109   1.391   1_545  A
C486       C1111   1.403   1_545  A
C487        C488   1.394       .  A
C487       C1110   1.403       .  A
C487      Br2366   1.917       .  S
C488        C489   1.404       .  A
C488        H493   1.083       .  S
C489        C490   1.414       .  A
C490       Br491   1.933       .  S
Br494      C2359   1.917   1_545  S
C495        C496   1.410       .  A
C495        C500   1.407       .  A
C495        H502   1.083       .  S
C496        C497   1.413       .  A
C497        C498   1.412       .  A
C497       Br504   1.918       .  S
C498        C499   1.414       .  A
C498        H503   1.084       .  S
C499        C500   1.416       .  A
C500       Br501   1.921       .  S
C505        C506   1.402       .  A
C505        C510   1.401       .  A
C505        H512   1.083       .  S
C506        C507   1.406       .  A
C507        C508   1.396       .  A
C507       Br514   1.921       .  S
C508       C1757   1.404       .  A
C508       H1761   1.084       .  S
C509       C1756   1.404       .  A
C509       C1758   1.410       .  A
C510       C1757   1.410       .  A
C510       Br511   1.919       .  S
H513       C1756   1.084   1_455  S
C515        C516   1.402       .  A
C515       C1768   1.394       .  A
C515        H522   1.084       .  S
C516       C1765   1.415       .  A
C517        C518   1.393       .  A
C517       C1764   1.415       .  A
C517       Br524   1.923       .  S
C518        C519   1.397       .  A
C518        H523   1.085       .  S
C519        C520   1.404       .  A
C520       C1763   1.394       .  A
C520      Br1769   1.908       .  S
Br521      C1768   1.908       .  S
C525        C526   1.397       .  A
C525        C530   1.405       .  A
C525        H532   1.083       .  S
C526        C527   1.433       .  A
C527        C528   1.405       .  A
C527       Br534   1.927       .  S
C528        C529   1.394       .  A
C528        H533   1.084       .  S
C529        C530   1.428       .  A
C530       Br531   1.923       .  S
C535        C536   1.419       .  A
C535        C540   1.407       .  A
C535        H542   1.083       .  S
C536        C537   1.417       .  A
C537        C538   1.411       .  A
C537       Br544   1.919       .  S
C538        C539   1.411       .  A
C538        H543   1.084       .  S
C539       C1279   1.491       .  S
C539        C540   1.403       .  A
C540       Br541   1.918       .  S
C545        C546   1.398       .  A
C545        C550   1.368       .  A
C545        H552   1.084       .  S
C546        C547   1.407       .  A
C547        C548   1.393       .  A
C547      Br2426   1.919       .  S
C548        C549   1.404       .  A
C548       H1801   1.083       .  S
C549        C550   1.410       .  A
C550       Br551   1.930       .  S
H553       C1796   1.083   1_455  S
Br554      C2419   1.919   1_445  S
C555        C556   1.402       .  A
C555        C560   1.398       .  A
C555       H1186   1.084       .  S
C556        C872   1.461       .  S
C556        C557   1.408       .  A
C557        C558   1.400       .  A
C557       Br564   1.918       .  S
C558        C559   1.401       .  A
C558        H563   1.084       .  S
C559        C560   1.407       .  A
C560       Br561   1.917       .  S
H562       C1179   1.084       .  S
C565        C566   1.399       .  A
C565        C570   1.401       .  A
C565        H572   1.084       .  S
C566        C567   1.406       .  A
C567        C568   1.395       .  A
C567       Br574   1.912       .  S
C568        C569   1.404       .  A
C568        H573   1.084       .  S
C569        C570   1.419       .  A
C570       Br571   1.923       .  S
C575        C576   1.410       .  A
C575        C580   1.406       .  A
C575        H582   1.084       .  S
C576        C577   1.404       .  A
C577        C578   1.403       .  A
C577       Br584   1.918       .  S
C578        C579   1.414       .  A
C578        H583   1.085       .  S
C579        C580   1.408       .  A
C580       Br581   1.917       .  S
C585        C586   1.402       .  A
C585       C1838   1.389   1_455  A
C585       H1216   1.085       .  S
C586        C587   1.391   1_455  A
C587       C1836   1.371       .  A
C587       Br594   1.923   1_655  S
C588        C589   1.402       .  A
C588       C1835   1.371       .  A
C588        H593   1.081       .  S
C589        C590   1.400       .  A
C590       C1833   1.389       .  A
C590       Br591   1.918       .  S
H592       C1209   1.084   1_545  S
C595        C596   1.417       .  A
C595        C600   1.405       .  A
C595        H602   1.083       .  S
C596        C597   1.408       .  A
C597        C598   1.406       .  A
C597       Br604   1.918       .  S
C598        C599   1.417       .  A
C598        H603   1.083       .  S
C599        C600   1.409       .  A
C600      Br1225   1.921       .  S
Br601      C1224   1.921       .  S
C605        C606   1.408       .  A
C605        C610   1.413       .  A
C605        H612   1.083       .  S
C606        C607   1.409       .  A
C607        C608   1.401       .  A
C607       Br614   1.916       .  S
C608        C609   1.404       .  A
C608        H613   1.083       .  S
C609        C610   1.412       .  A
C610       Br611   1.916       .  S
C615        C616   1.400       .  A
C615        C620   1.399       .  A
C615        H622   1.084       .  S
C616        C617   1.406       .  A
C617       C1242   1.399       .  A
C617      Br1248   1.916       .  S
C618       C1241   1.399       .  A
C618       C1243   1.408       .  A
C618        H623   1.083   1_565  S
C619        C674   1.485       .  S
C619        C620   1.415       .  A
C619       C1242   1.408       .  A
C620       Br621   1.920       .  S
Br624      C1241   1.916       .  S
O625       Cr643   1.970       .  S
O625        C633   1.263       .  A
O626       Cr643   1.959       .  S
O626        C627   1.251       .  A
C627        O628   1.274       .  A
C627       C1200   1.478       .  S
O628       Cr644   2.028       .  S
O629       Cr644   2.064       .  S
O629        C630   1.278       .  A
C630        O631   1.251       .  A
C630       C1220   1.503       .  S
O631       Cr645   1.946       .  S
O632       Cr645   2.021       .  S
O632        C633   1.269       .  A
C633       C1193   1.481       .  S
O634       Cr643   1.957       .  S
O634        C642   1.250       .  A
O635       Cr643   1.969       .  S
O635        C636   1.259       .  A
C636        O637   1.278       .  A
C636       C1230   1.489       .  S
O637       Cr644   2.056       .  S
O638       Cr644   1.981       .  S
O638        C639   1.263       .  A
C639        O640   1.264       .  A
C639       C1240   1.469       .  S
O640       Cr645   2.011       .  S
O641       Cr645   1.970       .  S
O641        C642   1.251       .  A
C642       C1213   1.433       .  S
Cr643       O646   1.757       .  S
Cr644       O646   1.772       .  S
Cr645       O646   1.775       .  S
O647       Cr665   2.039       .  S
O647        C655   1.276   1_455  A
O648       Cr665   2.077       .  S
O648        C649   1.282       .  A
C649        O650   1.247       .  A
C649       C1153   1.497       .  S
O650       Cr666   1.939       .  S
O651       Cr666   2.016       .  S
O651        C652   1.269       .  A
C652       O1901   1.261   1_455  A
C652       C1140   1.465   1_455  S
O653       Cr667   1.963       .  S
O653       C1900   1.261       .  A
O654       Cr667   1.972       .  S
O654       C1903   1.255       .  A
C655       O1902   1.255       .  A
C655       C2411   1.491       .  S
O656       Cr665   2.062   1_655  S
O656       C1912   1.281       .  A
O657       Cr665   1.985       .  S
O657        C658   1.262       .  A
C658        O659   1.262       .  A
C658       C1183   1.467       .  S
O659       Cr666   2.009       .  S
O660       Cr666   1.963       .  S
O660       C1909   1.252   1_455  A
C661       O1908   1.252       .  A
C661        O662   1.249       .  A
C661       C1173   1.445       .  S
O662       Cr667   1.966       .  S
O663       Cr667   1.966       .  S
O663        C664   1.259       .  A
C664       O1904   1.281       .  A
C664       C1233   1.491       .  S
Cr665       O668   1.765       .  S
Cr666       O668   1.771       .  S
Cr667      O1916   1.752       .  S
O668      Cr1915   1.752   1_455  S
O669       Cr687   2.047       .  S
O670       Cr687   2.072       .  S
O670        C671   1.276       .  A
C671        O672   1.249       .  A
C671       C1160   1.514       .  S
O672       Cr688   1.945       .  S
O673       Cr688   2.028       .  S
O673        C674   1.274       .  A
O675       Cr689   1.969       .  S
O676       Cr689   1.969       .  S
O676        C677   1.251       .  A
C677       C1150   1.502       .  S
O678        C686   1.281       .  A
O679       Cr687   1.974       .  S
O679        C680   1.263       .  A
C680        O681   1.268       .  A
C680       C1130   1.466       .  S
O681       Cr688   2.021       .  S
O682       Cr688   1.963       .  S
C683        O684   1.253       .  A
C683       C1170   1.447       .  S
O684       Cr689   1.965       .  S
O685       Cr689   1.988       .  S
O685        C686   1.268       .  A
C686       C1123   1.510       .  S
Cr687       O690   1.761       .  S
Cr688       O690   1.770       .  S
O691       Cr709   2.041       .  S
O691        C699   1.278       .  A
O692       Cr709   2.081       .  S
O692        C693   1.282       .  A
C693        O694   1.245       .  A
C693       C1103   1.503       .  S
O694       Cr710   1.942       .  S
O695       Cr710   2.013       .  S
O695        C696   1.265       .  A
C696        O697   1.265       .  A
C696       C1080   1.464       .  S
O697       Cr711   1.981       .  S
O698       Cr711   1.967       .  S
O698        C699   1.256       .  A
C699       C1093   1.509       .  S
O700       Cr709   2.060       .  S
O700        C708   1.281       .  A
O701       Cr709   1.975       .  S
O701        C702   1.259       .  A
C702        O703   1.260       .  A
C702       C1143   1.459       .  S
O703       Cr710   2.006       .  S
O704       Cr710   1.973       .  S
O704        C705   1.253       .  A
C705        O706   1.247       .  A
C705       C1113   1.442       .  S
O706       Cr711   1.946       .  S
O707       Cr711   1.973       .  S
O707        C708   1.261       .  A
C708       C1120   1.505       .  S
Cr709       O712   1.765       .  S
Cr710       O712   1.773       .  S
Cr711       O712   1.747       .  S
O713       Cr731   1.968       .  S
O713       C1969   1.262       .  A
O714       Cr731   1.969       .  S
O714       C1963   1.253       .  A
C715       O1962   1.253       .  A
C715        O716   1.277   1_655  A
C715       C2348   1.493       .  S
O716       Cr732   2.033       .  S
O717       Cr732   2.076       .  S
O717        C718   1.277       .  A
C718        O719   1.245       .  A
C718       C1090   1.498       .  S
O719       Cr733   1.937       .  S
O720       Cr733   2.032       .  S
O720        C721   1.275       .  A
C721       O1961   1.262   1_455  A
C721       C1133   1.472   1_455  S
O722       Cr731   1.966       .  S
O722        C730   1.253       .  A
O723       Cr731   1.991       .  S
O723        C724   1.269       .  A
C724       O1973   1.280       .  A
C724       C1063   1.511       .  S
O725       Cr732   2.052   1_655  S
O725       C1972   1.280       .  A
O726       Cr732   1.944       .  S
O726        C727   1.258       .  A
C727        O728   1.270       .  A
C727       C1070   1.472       .  S
O728       Cr733   2.035       .  S
O729       Cr733   1.956       .  S
O729       C1978   1.248       .  A
C730       O1977   1.248       .  A
C730       C1110   1.434       .  S
Cr731      O1982   1.749       .  S
Cr732       O734   1.762       .  S
Cr733       O734   1.775       .  S
O734      Cr1979   1.749   1_455  S
O735       Cr753   1.995       .  S
O735        C743   1.272       .  A
O736       Cr753   1.947       .  S
O736        C737   1.245       .  A
C737        O738   1.280       .  A
C737       C1043   1.487   1_565  S
O738       Cr754   2.038       .  S
O739       Cr754   2.069       .  S
O739        C740   1.279       .  A
C740        O741   1.249       .  A
C740       C1033   1.506       .  S
O741       Cr755   1.944       .  S
O742       Cr755   2.003       .  S
O742        C743   1.271       .  A
C743       C1023   1.480       .  S
O744       Cr753   1.923       .  S
O744        C752   1.234       .  A
O745       Cr753   1.998       .  S
O745        C746   1.270       .  A
C746        O747   1.278       .  A
O747       Cr754   2.043       .  S
O748       Cr754   1.967       .  S
O748        C749   1.260       .  A
C749        O750   1.261       .  A
C749       C1083   1.467       .  S
O750       Cr755   2.004       .  S
O751       Cr755   1.987       .  S
O751        C752   1.256       .  A
C752       C1050   1.435       .  S
Cr753       O756   1.758       .  S
Cr754       O756   1.762       .  S
Cr755       O756   1.773       .  S
O757       Cr775   2.076       .  S
O757        C765   1.290       .  A
O758       Cr775   2.062       .  S
O758        C759   1.287       .  A
C759        O760   1.240       .  A
C759       C1040   1.498       .  S
O760       Cr776   1.902       .  S
O761       Cr776   2.010       .  S
O761        C762   1.262       .  A
C762        O763   1.253       .  A
C762       C1073   1.478       .  S
O763       Cr777   1.978       .  S
O764       Cr777   1.951       .  S
O764        C765   1.258       .  A
C765       C1030   1.493       .  S
O766       Cr775   2.056       .  S
O766        C774   1.265       .  A
O767       Cr775   1.975       .  S
O767        C768   1.261       .  A
O770       Cr776   1.948       .  S
O770        C771   1.253       .  A
C771        O772   1.257       .  A
C771       C1053   1.428       .  S
O772       Cr777   1.957       .  S
O773       Cr777   1.977       .  S
O773        C774   1.244       .  A
C774       C1000   1.515       .  S
Cr775       O778   1.772       .  S
Cr776       O778   1.770       .  S
Cr777       O778   1.764       .  S
O779       Cr797   2.023       .  S
O779        C787   1.273       .  A
O780       Cr797   2.088       .  S
O780        C781   1.282       .  A
C781        O782   1.249       .  A
C781        C973   1.507       .  S
O782       Cr798   1.943       .  S
O783       Cr798   2.029       .  S
O783        C784   1.271       .  A
C784        O785   1.257       .  A
C784        C960   1.470       .  S
O785       Cr799   1.968       .  S
O786       Cr799   1.969       .  S
O786        C787   1.254       .  A
C787        C980   1.477       .  S
O788       Cr797   2.072       .  S
O788        C796   1.285       .  A
O789       Cr797   1.972       .  S
O789        C790   1.261       .  A
O792       Cr798   1.968       .  S
O792        C793   1.253       .  A
C793        O794   1.258       .  A
C793        C993   1.450       .  S
O794       Cr799   1.976       .  S
O795      Cr2047   1.977   1_455  S
O795       C2044   1.263       .  A
C796       O2043   1.263       .  A
C796       C2251   1.515       .  S
Cr797       O800   1.765       .  S
Cr798       O800   1.774       .  S
Cr799      O2043   1.977       .  S
Cr799       O800   1.753       .  S
O801       Cr819   2.036       .  S
O801        C809   1.276       .  A
O802       Cr819   2.075       .  S
O802        C803   1.279       .  A
C803        O804   1.248       .  A
C803        C983   1.502       .  S
O804       Cr820   1.940       .  S
O805       Cr820   2.013       .  S
O805        C806   1.267       .  A
C806        O807   1.262       .  A
C806       C1013   1.471       .  S
O807       Cr821   1.961       .  S
O808       Cr821   1.980       .  S
O808        C809   1.257       .  A
C809        C970   1.505   1_565  S
O810       Cr819   2.055       .  S
O810        C818   1.281       .  A
O811       Cr819   1.969       .  S
O811        C812   1.260       .  A
C812        O813   1.266       .  A
C812        C950   1.475       .  S
O813       Cr820   2.014       .  S
O814       Cr820   1.971       .  S
O814        C815   1.254       .  A
C815        O816   1.252       .  A
C815        C990   1.450       .  S
O816       Cr821   1.972       .  S
O817       Cr821   1.970       .  S
O817        C818   1.262       .  A
Cr819       O822   1.761       .  S
Cr820       O822   1.770       .  S
Cr821       O822   1.749       .  S
O823       Cr841   2.044       .  S
O823        C831   1.280       .  A
O824       Cr841   2.084       .  S
O824        C825   1.281   1_554  A
C825        O826   1.251       .  A
C825        C913   1.518       .  S
O826       Cr842   1.946       .  S
O827       Cr842   2.019       .  S
O827        C828   1.268       .  A
C828        O829   1.257       .  A
C828        C903   1.468       .  S
O829       Cr843   1.961       .  S
O830       Cr843   1.984   1_554  S
O830        C831   1.260       .  A
C831        C920   1.515       .  S
O832       Cr841   2.056       .  S
O832        C840   1.279       .  A
O833       Cr841   1.980       .  S
O833        C834   1.262       .  A
C834        O835   1.264       .  A
C834        C963   1.468       .  S
O835       Cr842   2.016   1_554  S
O836       Cr842   1.949   1_554  S
O836        C837   1.249       .  A
C837        O838   1.260   1_554  A
C837        C930   1.440       .  S
O838       Cr843   1.986       .  S
O839       Cr843   1.959   1_554  S
O839        C840   1.258       .  A
C840        C940   1.496       .  S
Cr841       O844   1.767       .  S
Cr842       O844   1.777   1_556  S
Cr843       O844   1.756   1_556  S
O845       Cr863   1.948   1_554  S
O845        C853   1.251       .  A
O846       Cr863   1.976       .  S
O846        C847   1.254       .  A
C847        O848   1.277       .  A
C847        C910   1.499       .  S
O848       Cr864   2.046       .  S
O849       Cr864   2.081       .  S
O849        C850   1.280       .  A
C850        O851   1.251   1_556  A
C850        C923   1.509       .  S
O851       Cr865   1.946       .  S
O852       Cr865   2.051       .  S
O852        C853   1.273       .  A
C853        C953   1.482       .  S
O854       Cr863   1.988   1_554  S
O854        C862   1.258       .  A
O855      Cr2111   1.958   1_455  S
O855       C2104   1.258       .  A
C856       O2103   1.258       .  A
C856        O857   1.286       .  A
C856       C2138   1.507       .  S
O857       Cr864   2.071       .  S
O858       Cr864   1.971       .  S
O858        C859   1.263       .  A
C859        O860   1.270       .  A
C859       C1190   1.468       .  S
O860       Cr865   2.029   1_556  S
O861       Cr865   1.951       .  S
O861        C862   1.252       .  A
C862        C933   1.458       .  S
Cr863      O2103   1.958       .  S
Cr863       O866   1.746       .  S
Cr864       O866   1.763       .  S
Cr865       O866   1.777   1_554  S
O867       Cr885   2.059       .  S
O868       Cr885   2.035       .  S
O868        C869   1.279       .  A
C869        O870   1.251       .  A
C869       C1203   1.478       .  S
O870       Cr886   1.934       .  S
O871       Cr886   1.994       .  S
O871        C872   1.266       .  A
O873       Cr887   1.982       .  S
O874       Cr887   1.950       .  S
O874        C875   1.255       .  A
C875       C1223   1.503       .  S
O876        C884   1.265       .  A
O877       Cr885   2.003       .  S
O877        C878   1.266       .  A
C878        O879   1.262       .  A
C878        C900   1.468       .  S
O879       Cr886   1.983       .  S
O880       Cr886   1.945       .  S
C881        O882   1.255       .  A
C881       C1210   1.421       .  S
O882       Cr887   1.960       .  S
O883       Cr887   1.992       .  S
O883        C884   1.255       .  A
C884        C893   1.505       .  S
Cr885       O888   1.772       .  S
Cr886       O888   1.771       .  S
C889        C890   1.404       .  A
C889        C894   1.407       .  A
C889        H896   1.083       .  S
C890       C2104   1.507       .  S
C890        C891   1.426       .  A
C891        C892   1.406       .  A
C891       Br898   1.926       .  S
C892        C893   1.404       .  A
C892        H897   1.083       .  S
C893        C894   1.423       .  A
C894       Br895   1.922       .  S
C899        C900   1.403       .  A
C899        C904   1.396       .  A
C899        H906   1.084       .  S
C900        C901   1.409       .  A
C901        C902   1.398       .  A
C901       Br908   1.919       .  S
C902        C903   1.403       .  A
C902        H907   1.084       .  S
C903        C904   1.409       .  A
C904       Br905   1.921       .  S
C909       C2158   1.413   1_554  A
C909        C914   1.411       .  A
C909        H916   1.084       .  S
C910       C2157   1.413   1_556  A
C910        C911   1.404       .  A
C911       C2160   1.410       .  A
C911       Br918   1.917       .  S
C912       C2159   1.410       .  A
C912        C913   1.422       .  A
C912        H917   1.083       .  S
C913        C914   1.416   1_556  A
C914       Br915   1.919       .  S
C919        C920   1.422   1_556  A
C919        C924   1.411       .  A
C919        H926   1.083       .  S
C920        C921   1.411       .  A
C921        C922   1.412       .  A
C921       Br928   1.918       .  S
C922        C923   1.417   1_554  A
C922        H927   1.083       .  S
C923        C924   1.404       .  A
C924       Br925   1.916       .  S
C929        C934   1.382       .  A
C930       C1555   1.400   1_454  A
C931       C1554   1.400   1_566  A
C931        C932   1.391   1_556  A
C932        C933   1.407       .  A
C932        H937   1.084   1_554  S
C933       C2182   1.411       .  A
C934       C2181   1.411   1_455  A
C934       Br935   1.926       .  S
C939        C940   1.410       .  A
C939        C944   1.405       .  A
C939        H946   1.084       .  S
C940        C941   1.409       .  A
C941        C942   1.407       .  A
C941       Br948   1.919       .  S
C942        C943   1.414       .  A
C942        H947   1.082       .  S
C943        C944   1.413       .  A
C949       C2198   1.409       .  A
C949        C954   1.408       .  A
C949        H956   1.084       .  S
C950       C2197   1.409   1_455  A
C950        C951   1.407       .  A
C951        C952   1.384       .  A
C951       Br958   1.924       .  S
C952       C2201   1.408   1_455  A
C952        H957   1.084       .  S
C953       C2200   1.408       .  A
C953        C954   1.410       .  A
C954       Br955   1.918       .  S
C959        C960   1.402       .  A
C959       C2212   1.394       .  A
C959       H2214   1.084       .  S
C960        C961   1.410       .  A
C961        C962   1.403       .  A
C961       Br968   1.918       .  S
C962       C2211   1.403       .  A
C962        H967   1.084       .  S
C963       C2210   1.403       .  A
C963        C964   1.406       .  A
C964       C2207   1.394   1_455  A
C964       Br965   1.919       .  S
H966       C2207   1.084       .  S
C969        C974   1.411       .  A
C969        H976   1.083       .  S
C970        C971   1.407   1_545  A
C971        C972   1.407   1_565  A
C971       Br978   1.919       .  S
C972        H977   1.083       .  S
C973        C974   1.406       .  A
C974       Br975   1.916       .  S
C979        C980   1.405       .  A
C979       C2232   1.405       .  A
C979        H986   1.084       .  S
C980       C2229   1.404       .  A
C981       C2228   1.404       .  A
C981        C982   1.403       .  A
C981       Br988   1.919       .  S
C982        C983   1.416       .  A
C982        H987   1.084       .  S
C983        C984   1.415       .  A
C984       C2227   1.405       .  A
C984       Br985   1.911       .  S
C989       C2238   1.406       .  A
C989        C994   1.399       .  A
C989        H996   1.084       .  S
C990       C2237   1.406   1_455  A
C991        C992   1.368       .  A
C991       Br998   1.929       .  S
C992       C2241   1.395   1_455  A
C992        H997   1.082       .  S
C993       C2240   1.395       .  A
C994       Br995   1.918       .  S
C999       C1000   1.404       .  A
C999       C1004   1.413       .  A
C999       H1006   1.083       .  S
C1000      C1001   1.428       .  A
C1001      C1002   1.410       .  A
C1001     Br1008   1.923       .  S
C1002      C1003   1.403       .  A
C1002      H1007   1.083       .  S
C1003      C2044   1.515       .  S
C1003      C1004   1.423       .  A
C1004     Br1005   1.916       .  S
C1009      C1010   1.400       .  A
C1009      C1014   1.396       .  A
C1009      H1016   1.082       .  S
C1010      C1011   1.411       .  A
C1011      C1012   1.390       .  A
C1012      C1013   1.402       .  A
C1012      H1017   1.084       .  S
C1013      C1014   1.416       .  A
C1014     Br1015   1.923       .  S
C1019      C1020   1.407       .  A
C1019      C1024   1.406   1_545  A
C1019      H1026   1.084       .  S
C1020      C1021   1.401   1_545  A
C1021      C1022   1.392       .  A
C1021     Br1028   1.922       .  S
C1022      C1023   1.410       .  A
C1022      H1027   1.084       .  S
C1023      C1024   1.407       .  A
C1024     Br1025   1.915       .  S
C1029      C1030   1.402       .  A
C1029      C1034   1.405       .  A
C1029      H1036   1.084       .  S
C1030      C1031   1.416       .  A
C1031      C1032   1.411       .  A
C1031     Br1038   1.923       .  S
C1032      C1033   1.408       .  A
C1032      H1037   1.084       .  S
C1033      C1034   1.423       .  A
C1034     Br1035   1.923       .  S
C1039      C1040   1.396       .  A
C1039      C1044   1.410       .  A
C1039      H1046   1.083       .  S
C1041      C1042   1.392   1_545  A
C1041     Br1048   1.923   1_545  S
C1042      C1043   1.383   1_565  A
C1042      H1047   1.084       .  S
C1044     Br1045   1.924       .  S
C1049      C1050   1.394       .  A
C1049      C2302   1.386       .  A
C1049      H1056   1.084       .  S
C1051      C2300   1.365       .  A
C1051     Br1058   1.935       .  S
C1052      C2299   1.365       .  A
C1052      C1053   1.385   1_655  A
C1052      H1057   1.083   1_655  S
C1054      C2297   1.386       .  A
C1054     Br1055   1.919   1_655  S
C1059      C1060   1.409       .  A
C1059      C1064   1.411       .  A
C1059      H1066   1.084       .  S
C1061     Br1068   1.920   1_545  S
C1062      C1063   1.411       .  A
C1062      H1067   1.084       .  S
C1063      C1064   1.419       .  A
C1064     Br1065   1.920       .  S
C1069      C1070   1.397       .  A
C1069      C1074   1.383       .  A
C1069      H1076   1.085       .  S
C1070      C1071   1.410       .  A
C1071      C1072   1.409       .  A
C1071     Br1078   1.915       .  S
C1072      C1073   1.408       .  A
C1072      H1077   1.083       .  S
C1073      C1074   1.417       .  A
C1074     Br1075   1.929       .  S
C1079      C1080   1.400       .  A
C1079      C1084   1.400       .  A
C1079      H1086   1.084       .  S
C1080      C1081   1.412       .  A
C1081      C1082   1.388       .  A
C1081     Br1088   1.915       .  S
C1082      C1083   1.396       .  A
C1082      H1087   1.085       .  S
C1083      C1084   1.407       .  A
C1084     Br1085   1.905       .  S
C1089      C1090   1.417       .  A
C1089      C1094   1.408       .  A
C1089      H1096   1.083       .  S
C1090      C1091   1.400       .  A
C1091      C1092   1.407       .  A
C1091     Br1098   1.916       .  S
C1092      C1093   1.423       .  A
C1092      H1097   1.083       .  S
C1093      C1094   1.408       .  A
C1094     Br1095   1.918       .  S
C1099      C1100   1.394       .  A
C1099      C1104   1.404       .  A
C1099      H2354   1.083       .  S
C1100      C1963   1.493       .  S
C1100      C1101   1.424       .  A
C1101      C1102   1.406       .  A
C1101     Br1108   1.924       .  S
C1102      C1103   1.400       .  A
C1102      H1107   1.083       .  S
C1103      C1104   1.432       .  A
C1104     Br1105   1.925       .  S
H1106      C2347   1.083       .  S
C1109      C1114   1.362       .  A
C1109      H1116   1.085   1_565  S
C1111      C1112   1.394       .  A
C1111     Br1742   1.917   1_565  S
C1112      C1113   1.404       .  A
C1112      H1117   1.083       .  S
C1113      C1114   1.414       .  A
C1114     Br1115   1.933       .  S
Br1118     C1735   1.917       .  S
C1119      C1120   1.410       .  A
C1119      C1124   1.407       .  A
C1119      H1126   1.083       .  S
C1120      C1121   1.413       .  A
C1121      C1122   1.412       .  A
C1121     Br1128   1.918       .  S
C1122      C1123   1.414       .  A
C1122      H1127   1.084       .  S
C1123      C1124   1.416       .  A
C1124     Br1125   1.921       .  S
C1129      C1130   1.402       .  A
C1129      C1134   1.401       .  A
C1129      H1136   1.083       .  S
C1130      C1131   1.406       .  A
C1131      C1132   1.396       .  A
C1131     Br1138   1.921       .  S
C1132      C2381   1.404       .  A
C1132      H2385   1.084       .  S
C1133      C2380   1.404       .  A
C1133      C2382   1.410       .  A
C1134      C2381   1.410       .  A
C1134     Br1135   1.919       .  S
H1137      C2380   1.084   1_455  S
C1139      C1140   1.402       .  A
C1139      C2392   1.394       .  A
C1139      H1146   1.084       .  S
C1140      C2389   1.415       .  A
C1141      C2388   1.415       .  A
C1141      C1142   1.393       .  A
C1141     Br1148   1.923       .  S
C1142      C1143   1.397       .  A
C1142      H1147   1.085       .  S
C1143      C1144   1.404       .  A
C1144      C2387   1.394       .  A
C1144     Br2393   1.908       .  S
Br1145     C2392   1.908       .  S
C1149      C1150   1.397       .  A
C1149      C1154   1.405       .  A
C1149      H1156   1.083       .  S
C1150      C1151   1.433       .  A
C1151      C1152   1.405       .  A
C1151     Br1158   1.927       .  S
C1152      C1153   1.394       .  A
C1152      H1157   1.084       .  S
C1153      C1154   1.428       .  A
C1154     Br1155   1.923       .  S
C1159      C1160   1.419       .  A
C1159      C1164   1.407       .  A
C1159      H1166   1.083       .  S
C1160      C1161   1.417       .  A
C1161      C1162   1.411       .  A
C1161     Br1168   1.919       .  S
C1162      C1163   1.411       .  A
C1162      H1167   1.084       .  S
C1163      C1903   1.491       .  S
C1163      C1164   1.403       .  A
C1164     Br1165   1.918       .  S
C1169      C1170   1.398       .  A
C1169      C1174   1.368       .  A
C1169      H1176   1.084       .  S
C1170      C1171   1.407       .  A
C1171      C1172   1.393       .  A
C1171     Br1802   1.919   1_565  S
C1172      C1173   1.404       .  A
C1172      H2425   1.083       .  S
C1173      C1174   1.410       .  A
C1174     Br1175   1.930       .  S
H1177      C2420   1.083   1_455  S
Br1178     C1795   1.919   1_455  S
C1179      C1180   1.402       .  A
C1179      C1184   1.398       .  A
C1180      C1181   1.408       .  A
C1181      C1182   1.400       .  A
C1181     Br1188   1.918       .  S
C1182      C1183   1.401       .  A
C1182      H1187   1.084       .  S
C1183      C1184   1.407       .  A
C1184     Br1185   1.917       .  S
C1189      C1190   1.399       .  A
C1189      C1194   1.401       .  A
C1189      H1196   1.084       .  S
C1190      C1191   1.406       .  A
C1191      C1192   1.395       .  A
C1191     Br1198   1.912       .  S
C1192      C1193   1.404       .  A
C1192      H1197   1.084       .  S
C1193      C1194   1.419       .  A
C1194     Br1195   1.923       .  S
C1199      C1200   1.410       .  A
C1199      C1204   1.406       .  A
C1199      H1206   1.084       .  S
C1200      C1201   1.404       .  A
C1201      C1202   1.403       .  A
C1201     Br1208   1.918       .  S
C1202      C1203   1.414       .  A
C1202      H1207   1.085       .  S
C1203      C1204   1.408       .  A
C1204     Br1205   1.917       .  S
C1209      C1210   1.403       .  A
C1209      C2462   1.389   1_455  A
C1210      C1211   1.391   1_455  A
C1211      C2460   1.371       .  A
C1211     Br1218   1.923   1_655  S
C1212      C2459   1.371       .  A
C1212      C1213   1.402       .  A
C1212      H1217   1.080       .  S
C1213      C1214   1.400       .  A
C1214      C2457   1.389       .  A
C1214     Br1215   1.918       .  S
C1219      C1220   1.417       .  A
C1219      C1224   1.405       .  A
C1219      H1226   1.083       .  S
C1220      C1221   1.408       .  A
C1221      C1222   1.406       .  A
C1221     Br1228   1.918       .  S
C1222      C1223   1.417       .  A
C1222      H1227   1.083       .  S
C1223      C1224   1.409       .  A
C1229      C1230   1.408       .  A
C1229      C1234   1.413       .  A
C1229      H1236   1.083       .  S
C1230      C1231   1.409       .  A
C1231      C1232   1.401       .  A
C1231     Br1238   1.916       .  S
C1232      C1233   1.404       .  A
C1232      H1237   1.083       .  S
C1233      C1234   1.412       .  A
C1234     Br1235   1.916       .  S
C1239      C1240   1.400       .  A
C1239      C1244   1.399       .  A
C1239      H1246   1.084       .  S
C1240      C1241   1.406       .  A
C1242      H1247   1.083       .  S
C1243      C1244   1.415       .  A
C1244     Br1245   1.920       .  S
O1249     Cr1267   1.970       .  S
O1249      C1257   1.263       .  A
O1250     Cr1267   1.959       .  S
O1250      C1251   1.251       .  A
C1251      O1252   1.274       .  A
C1251      C1824   1.478       .  S
O1252     Cr1268   2.028       .  S
O1253     Cr1268   2.064       .  S
O1253      C1254   1.278       .  A
C1254      O1255   1.251       .  A
C1254      C1844   1.503       .  S
O1255     Cr1269   1.946       .  S
O1256     Cr1269   2.021       .  S
O1256      C1257   1.269       .  A
C1257      C1817   1.481       .  S
O1258     Cr1267   1.957       .  S
O1258      C1266   1.250       .  A
O1259     Cr1267   1.969       .  S
O1259      C1260   1.259       .  A
C1260      O1261   1.278       .  A
C1260      C1854   1.489       .  S
O1261     Cr1268   2.056       .  S
O1262     Cr1268   1.981       .  S
O1262      C1263   1.263       .  A
C1263      O1264   1.264       .  A
C1263      C1864   1.469       .  S
O1264     Cr1269   2.011       .  S
O1265     Cr1269   1.970       .  S
O1265      C1266   1.251       .  A
C1266      C1837   1.433       .  S
Cr1267     O1270   1.757       .  S
Cr1268     O1270   1.772       .  S
Cr1269     O1270   1.775       .  S
O1271     Cr1289   2.039       .  S
O1271      C1279   1.276       .  A
O1272     Cr1289   2.077       .  S
O1272      C1273   1.282       .  A
C1273      O1274   1.247       .  A
C1273      C1777   1.497       .  S
O1274     Cr1290   1.939       .  S
O1275     Cr1290   2.016       .  S
O1275      C1276   1.269       .  A
C1276      C1764   1.465       .  S
O1277     Cr1291   1.962       .  S
O1278     Cr1291   1.972       .  S
O1280     Cr1289   2.062       .  S
O1281     Cr1289   1.985       .  S
O1281      C1282   1.262       .  A
C1282      O1283   1.262       .  A
C1282      C1807   1.467       .  S
O1283     Cr1290   2.009       .  S
O1284     Cr1290   1.963       .  S
C1285      O1286   1.249       .  A
C1285      C1797   1.445       .  S
O1286     Cr1291   1.966       .  S
O1287     Cr1291   1.966       .  S
O1287      C1288   1.259       .  A
C1288      C1857   1.491       .  S
Cr1289     O1292   1.765       .  S
Cr1290     O1292   1.771       .  S
O1293     Cr1311   2.047   1_565  S
O1293      C1925   1.280       .  A
O1294     Cr1311   2.072       .  S
O1294      C1295   1.276       .  A
C1295      O1296   1.249       .  A
C1295      C1784   1.514       .  S
O1296     Cr1312   1.945       .  S
O1297     Cr1312   2.028       .  S
O1297      C1298   1.274   1_545  A
C1298      O1923   1.261       .  A
C1298      C2491   1.485       .  S
O1299     Cr1313   1.969       .  S
O1299      C1922   1.261       .  A
O1300     Cr1313   1.969       .  S
O1300      C1301   1.251       .  A
C1301      O1917   1.280       .  A
C1301      C1774   1.502       .  S
O1302     Cr1935   2.055       .  S
O1302      C1310   1.281       .  A
O1303     Cr1311   1.974       .  S
O1303      C1304   1.263       .  A
C1304      O1305   1.268       .  A
C1304      C1754   1.466       .  S
O1305     Cr1312   2.021       .  S
O1306     Cr1312   1.963       .  S
O1306      C1931   1.249   1_545  A
C1307      O1930   1.249       .  A
C1307      O1308   1.253       .  A
C1307      C1794   1.447       .  S
O1308     Cr1313   1.966       .  S
O1309     Cr1313   1.988       .  S
O1309      C1310   1.268       .  A
C1310      C1747   1.510       .  S
Cr1311     O1926   2.055   1_545  S
Cr1311     O1314   1.761       .  S
Cr1312     O1314   1.770       .  S
Cr1313     O1938   1.753       .  S
O1314     Cr1937   1.753   1_545  S
O1315     Cr1333   2.041       .  S
O1315      C1323   1.278       .  A
O1316     Cr1333   2.081       .  S
O1316      C1317   1.282       .  A
C1317      O1318   1.245       .  A
C1317      C1727   1.503       .  S
O1318     Cr1334   1.942       .  S
O1319     Cr1334   2.013       .  S
O1319      C1320   1.265       .  A
C1320      O1321   1.265       .  A
C1320      C1704   1.464       .  S
O1321     Cr1335   1.981       .  S
O1322     Cr1335   1.967       .  S
O1322      C1323   1.256       .  A
C1323      C1717   1.509       .  S
O1324     Cr1333   2.060       .  S
O1324      C1332   1.281       .  A
O1325     Cr1333   1.975       .  S
O1325      C1326   1.259       .  A
C1326      O1327   1.260       .  A
C1326      C1767   1.459       .  S
O1327     Cr1334   2.006       .  S
O1328     Cr1334   1.973       .  S
O1328      C1329   1.253       .  A
C1329      O1330   1.247       .  A
C1329      C1737   1.442       .  S
O1330     Cr1335   1.946       .  S
O1331     Cr1335   1.973       .  S
O1331      C1332   1.261       .  A
C1332      C1744   1.505       .  S
Cr1333     O1336   1.765       .  S
Cr1334     O1336   1.773       .  S
Cr1335     O1336   1.747       .  S
O1337     Cr1355   1.968       .  S
O1338     Cr1355   1.969       .  S
C1339      O1340   1.277       .  A
O1340     Cr1356   2.033       .  S
O1341     Cr1356   2.076       .  S
O1341      C1342   1.277       .  A
C1342      O1343   1.245       .  A
C1342      C1714   1.498       .  S
O1343     Cr1357   1.937       .  S
O1344     Cr1357   2.032       .  S
O1344      C1345   1.275       .  A
C1345      C1757   1.472       .  S
O1346     Cr1355   1.966       .  S
O1346      C1354   1.253   1_655  A
O1347     Cr1355   1.991       .  S
O1347      C1348   1.269       .  A
C1348      C1687   1.511       .  S
O1349     Cr1356   2.052       .  S
O1350     Cr1356   1.944       .  S
O1350      C1351   1.258       .  A
C1351      O1352   1.270       .  A
C1351      C1694   1.472       .  S
O1352     Cr1357   2.035       .  S
O1353     Cr1357   1.956       .  S
C1354      C1734   1.434   1_455  S
Cr1356     O1358   1.762       .  S
Cr1357     O1358   1.775       .  S
O1359     Cr1377   1.995       .  S
O1359      C1367   1.272       .  A
O1360     Cr1377   1.946       .  S
O1360      C1361   1.245       .  A
C1361      O1362   1.280       .  A
C1361      C1667   1.487       .  S
O1362     Cr1378   2.038       .  S
O1363     Cr1378   2.069       .  S
O1363      C1364   1.279       .  A
C1364      O1365   1.249       .  A
C1364      C1657   1.506       .  S
O1365     Cr1379   1.944       .  S
O1366     Cr1379   2.003       .  S
O1366      C1367   1.271       .  A
C1367      C1647   1.480       .  S
O1368     Cr1377   1.923       .  S
O1368      C1376   1.234       .  A
O1369     Cr1377   1.998       .  S
O1369      C1370   1.270       .  A
C1370      O1371   1.278       .  A
C1370      C2308   1.507       .  S
O1371     Cr1378   2.043       .  S
O1372     Cr1378   1.967       .  S
O1372      C1373   1.260       .  A
C1373      O1374   1.261       .  A
C1373      C1707   1.467       .  S
O1374     Cr1379   2.004       .  S
O1375     Cr1379   1.987       .  S
O1375      C1376   1.256       .  A
C1376      C1674   1.434       .  S
Cr1377     O1380   1.758       .  S
Cr1378     O1380   1.762       .  S
Cr1379     O1380   1.773       .  S
O1381     Cr1399   2.076       .  S
O1381      C1389   1.289       .  A
O1382     Cr1399   2.062       .  S
O1382      C1383   1.287       .  A
C1383      O1384   1.240       .  A
C1383      C1664   1.498       .  S
O1384     Cr1400   1.902       .  S
O1385     Cr1400   2.010       .  S
O1385      C1386   1.262       .  A
C1386      O1387   1.253       .  A
C1386      C1697   1.478       .  S
O1387     Cr1401   1.978       .  S
O1388     Cr1401   1.951       .  S
O1388      C1389   1.258       .  A
C1389      C1654   1.493       .  S
O1390     Cr1399   2.056       .  S
O1390      C1398   1.265       .  A
O1391     Cr1399   1.975       .  S
O1391      C1392   1.261       .  A
C1392      O2017   1.265       .  A
C1392      C2258   1.469   1_545  S
O1393     Cr2024   1.987       .  S
O1393      C2016   1.265       .  A
O1394     Cr1400   1.948       .  S
O1394      C1395   1.253       .  A
C1395      O1396   1.257       .  A
C1395      C1677   1.428       .  S
O1396     Cr1401   1.957       .  S
O1397     Cr1401   1.977       .  S
O1397      C1398   1.244       .  A
C1398      C1624   1.515       .  S
Cr1399     O1402   1.772       .  S
Cr1400     O2017   1.987       .  S
Cr1400     O1402   1.770       .  S
Cr1401     O1402   1.764       .  S
O1403     Cr1421   2.023       .  S
O1403      C1411   1.273       .  A
O1404     Cr1421   2.088       .  S
O1404      C1405   1.282       .  A
C1405      O1406   1.249       .  A
C1405      C1597   1.507       .  S
O1406     Cr1422   1.943       .  S
O1407     Cr1422   2.029       .  S
O1407      C1408   1.271       .  A
C1408      O1409   1.257       .  A
C1408      C1584   1.470       .  S
O1409     Cr1423   1.968       .  S
O1410     Cr1423   1.969   1_455  S
O1410      C1411   1.254   1_455  A
C1411      C1604   1.477   1_655  S
O1412     Cr1421   2.073       .  S
O1412      C1420   1.285   1_655  A
O1413     Cr1421   1.972       .  S
O1413      C1414   1.261       .  A
C1414      O2039   1.267       .  A
C1414      C2268   1.467       .  S
O1415     Cr2046   2.026       .  S
O1415      C2038   1.267       .  A
O1416     Cr1422   1.968       .  S
O1416      C1417   1.253       .  A
C1417      O1418   1.258       .  A
C1417      C1617   1.450       .  S
O1418     Cr1423   1.976       .  S
Cr1421     O1424   1.765       .  S
Cr1422     O2039   2.026       .  S
Cr1422     O1424   1.774       .  S
Cr1423     O1424   1.753       .  S
O1425     Cr1443   2.036       .  S
O1425      C1433   1.276       .  A
O1426     Cr1443   2.075       .  S
O1426      C1427   1.279       .  A
C1427      O1428   1.248       .  A
C1427      C1607   1.502       .  S
O1428     Cr1444   1.940       .  S
O1429     Cr1444   2.013       .  S
O1429      C1430   1.267       .  A
C1430      O1431   1.262       .  A
C1430      C1637   1.471       .  S
O1431     Cr1445   1.961       .  S
O1432     Cr1445   1.980       .  S
O1432      C1433   1.257       .  A
C1433      C1594   1.505       .  S
O1434     Cr1443   2.055       .  S
O1434      C1442   1.281       .  A
O1435     Cr1443   1.969       .  S
O1435      C1436   1.260       .  A
C1436      O1437   1.266       .  A
C1436      C1574   1.475       .  S
O1437     Cr1444   2.014       .  S
O1438     Cr1444   1.971       .  S
O1438      C1439   1.254       .  A
C1439      O1440   1.252       .  A
C1439      C1614   1.450       .  S
O1440     Cr1445   1.972       .  S
O1441     Cr1445   1.970       .  S
O1441      C1442   1.262       .  A
C1442      C2191   1.503       .  S
Cr1443     O1446   1.761       .  S
Cr1444     O1446   1.770       .  S
Cr1445     O1446   1.749       .  S
O1447     Cr1465   2.044       .  S
O1447      C1455   1.280       .  A
O1448     Cr1465   2.084       .  S
O1448      C1449   1.281   1_554  A
C1449      O1450   1.251       .  A
C1449      C1537   1.518       .  S
O1450     Cr1466   1.946       .  S
O1451     Cr1466   2.019       .  S
O1451      C1452   1.268       .  A
C1452      O1453   1.257       .  A
C1452      C1527   1.468       .  S
O1453     Cr1467   1.961       .  S
O1454     Cr1467   1.984   1_554  S
O1454      C1455   1.260       .  A
C1455      C1544   1.515       .  S
O1456     Cr1465   2.056       .  S
O1456      C1464   1.279       .  A
O1457     Cr1465   1.980       .  S
O1457      C1458   1.262       .  A
C1458      O1459   1.264       .  A
C1458      C1587   1.468       .  S
O1459     Cr1466   2.016   1_554  S
O1460     Cr1466   1.949   1_554  S
O1460      C1461   1.249       .  A
C1461      O1462   1.260   1_554  A
C1461      C1554   1.440       .  S
O1462     Cr1467   1.986       .  S
O1463     Cr1467   1.959   1_554  S
O1463      C1464   1.258       .  A
C1464      C1564   1.496       .  S
Cr1465     O1468   1.767       .  S
Cr1466     O1468   1.777   1_556  S
Cr1467     O1468   1.756   1_556  S
O1469     Cr1487   1.948   1_554  S
O1469      C1477   1.251       .  A
O1470     Cr1487   1.976   1_455  S
O1470      C1471   1.254   1_455  A
C1471      O1472   1.277       .  A
C1471      C1534   1.499   1_655  S
O1472     Cr1488   2.046       .  S
O1473     Cr1488   2.081       .  S
O1473      C1474   1.280       .  A
C1474      O1475   1.251   1_556  A
C1474      C1547   1.509       .  S
O1475     Cr1489   1.946       .  S
O1476     Cr1489   2.051       .  S
O1476      C1477   1.273       .  A
C1477      C1577   1.482       .  S
O1478     Cr1487   1.988   1_554  S
O1478      C1486   1.258       .  A
C1480      O1481   1.286   1_455  A
O1481     Cr1488   2.072       .  S
O1482     Cr1488   1.971       .  S
O1482      C1483   1.263       .  A
C1483      O1484   1.270       .  A
C1483      C1814   1.468       .  S
O1484     Cr1489   2.029   1_556  S
O1485     Cr1489   1.951       .  S
O1485      C1486   1.252       .  A
C1486      C1557   1.458       .  S
Cr1487     O1490   1.746       .  S
Cr1488     O1490   1.763       .  S
Cr1489     O1490   1.777   1_554  S
O1491     Cr1509   2.059   1_565  S
O1491      C2123   1.280       .  A
O1492     Cr1509   2.035       .  S
O1492      C1493   1.279       .  A
C1493      O1494   1.251       .  A
C1493      C1827   1.478       .  S
O1494     Cr1510   1.934       .  S
O1495     Cr1510   1.994       .  S
O1495      C1496   1.266   1_545  A
C1496      O2121   1.262       .  A
C1496      C2428   1.461       .  S
O1497     Cr1511   1.982       .  S
O1497      C2120   1.262       .  A
O1498     Cr1511   1.950       .  S
O1498      C1499   1.255       .  A
C1499      O2115   1.280       .  A
C1499      C1847   1.503       .  S
O1500     Cr2133   2.019       .  S
O1500      C1508   1.265       .  A
O1501     Cr1509   2.003       .  S
O1501      C1502   1.266       .  A
C1502      O1503   1.262       .  A
C1502      C1524   1.468       .  S
O1503     Cr1510   1.983       .  S
O1504     Cr1510   1.945   1_565  S
O1504      C2129   1.246       .  A
C1505      O2128   1.246       .  A
C1505      O1506   1.255       .  A
C1505      C1834   1.421       .  S
O1506     Cr1511   1.960       .  S
O1507     Cr1511   1.992       .  S
O1507      C1508   1.255       .  A
C1508      C1517   1.505       .  S
Cr1509     O2124   2.019   1_545  S
Cr1509     O1512   1.772       .  S
Cr1510     O1512   1.771       .  S
Cr1511     O2136   1.765       .  S
O1512     Cr2135   1.765   1_545  S
C1513      C1514   1.404       .  A
C1513      C1518   1.407       .  A
C1513      H1520   1.083       .  S
C1514      C1515   1.426       .  A
C1515      C1516   1.406       .  A
C1515     Br1522   1.926       .  S
C1516      C1517   1.404       .  A
C1516      H1521   1.083       .  S
C1517      C1518   1.423       .  A
C1518     Br1519   1.922       .  S
C1523      C1524   1.403       .  A
C1523      C1528   1.396       .  A
C1523      H1530   1.084       .  S
C1524      C1525   1.409       .  A
C1525      C1526   1.398       .  A
C1525     Br1532   1.919       .  S
C1526      C1527   1.403       .  A
C1526      H1531   1.084       .  S
C1527      C1528   1.409       .  A
C1528     Br1529   1.921       .  S
C1533      C1538   1.411       .  A
C1533      H1540   1.084       .  S
C1534      C1535   1.404       .  A
C1535     Br1542   1.917   1_455  S
C1536      C1537   1.422       .  A
C1536      H1541   1.083       .  S
C1537      C1538   1.416   1_556  A
C1538     Br1539   1.919       .  S
C1543      C1544   1.422   1_556  A
C1543      C1548   1.411       .  A
C1543      H1550   1.083       .  S
C1544      C1545   1.411       .  A
C1545      C1546   1.412       .  A
C1545     Br1552   1.918       .  S
C1546      C1547   1.417   1_554  A
C1546      H1551   1.083       .  S
C1547      C1548   1.404       .  A
C1548     Br1549   1.916       .  S
C1553      C2178   1.395       .  A
C1553      C1558   1.382       .  A
C1553      H2184   1.083       .  S
C1554      C2177   1.395   1_545  A
C1555      C1556   1.391   1_556  A
C1555     Br2186   1.918       .  S
C1556      C1557   1.407       .  A
C1556      H1561   1.084   1_554  S
C1558     Br1559   1.926       .  S
H1560      C2177   1.083   1_545  S
Br1562     C2179   1.918   1_545  S
C1563      C1564   1.410       .  A
C1563      C1568   1.405       .  A
C1563      H1570   1.084       .  S
C1564      C1565   1.409       .  A
C1565      C1566   1.407       .  A
C1565     Br1572   1.919       .  S
C1566      C1567   1.414       .  A
C1566      H1571   1.082       .  S
C1567      C2066   1.503   1_545  S
C1567      C1568   1.413       .  A
C1568     Br2193   1.917   1_545  S
Br1569     C2192   1.917       .  S
C1573      C1578   1.408       .  A
C1573      H1580   1.084       .  S
C1574      C1575   1.407       .  A
C1575      C1576   1.384       .  A
C1575     Br1582   1.924       .  S
C1576      H1581   1.084       .  S
C1577      C1578   1.410       .  A
C1578     Br1579   1.918       .  S
C1583      C1584   1.402       .  A
C1584      C1585   1.410       .  A
C1585      C1586   1.403   1_655  A
C1585     Br1592   1.918       .  S
C1586      H1591   1.084       .  S
C1587      C1588   1.406       .  A
C1588     Br1589   1.919       .  S
C1593      C2218   1.420       .  A
C1593      C1598   1.411       .  A
C1593      H1600   1.083       .  S
C1594      C2217   1.420       .  A
C1594      C1595   1.407       .  A
C1595      C1596   1.407       .  A
C1595     Br1602   1.919       .  S
C1596      C2221   1.418       .  A
C1596      H1601   1.083       .  S
C1597      C2220   1.418       .  A
C1597      C1598   1.406       .  A
C1598     Br1599   1.916       .  S
C1603      C1604   1.405       .  A
C1603      H1610   1.084       .  S
C1605      C1606   1.403       .  A
C1605     Br1612   1.919       .  S
C1606      C1607   1.416       .  A
C1606      H1611   1.084       .  S
C1607      C1608   1.415       .  A
C1608     Br1609   1.911       .  S
C1613      C1618   1.398       .  A
C1613      H1620   1.084       .  S
C1614      C2239   1.410       .  A
C1615      C2238   1.410   1_545  A
C1615      C1616   1.368       .  A
C1615     Br1622   1.929       .  S
C1616      H1621   1.082       .  S
C1617      C2242   1.406   1_545  A
C1618      C2241   1.406       .  A
C1618     Br1619   1.918       .  S
C1623      C1624   1.404       .  A
C1623      C1628   1.413       .  A
C1623      H1630   1.083       .  S
C1624      C1625   1.428       .  A
C1625      C1626   1.410       .  A
C1625     Br1632   1.923       .  S
C1626      C1627   1.403       .  A
C1626      H1631   1.083       .  S
C1627      C1628   1.423       .  A
C1628     Br1629   1.916       .  S
C1633      C1634   1.400       .  A
C1633      C1638   1.396       .  A
C1633      H1640   1.082       .  S
C1634      C2016   1.469       .  S
C1634      C1635   1.411       .  A
C1635      C1636   1.390       .  A
C1635     Br2266   1.922       .  S
C1636      C1637   1.402       .  A
C1636      H1641   1.084       .  S
C1637      C1638   1.416       .  A
C1638     Br1639   1.923       .  S
Br1642     C2259   1.922   1_545  S
C1643      C1644   1.407       .  A
C1643      C1648   1.406       .  A
C1643      H1650   1.084       .  S
C1644      C2038   1.467       .  S
C1644      C1645   1.401       .  A
C1645      C1646   1.392       .  A
C1645     Br1652   1.922       .  S
C1646      C1647   1.410       .  A
C1646      H1651   1.084       .  S
C1647      C1648   1.407       .  A
C1648     Br1649   1.915       .  S
C1653      C1654   1.402       .  A
C1653      C1658   1.405       .  A
C1653      H1660   1.084       .  S
C1654      C1655   1.416       .  A
C1655      C1656   1.411       .  A
C1655     Br1662   1.923       .  S
C1656      C1657   1.408       .  A
C1656      H1661   1.084       .  S
C1657      C1658   1.423       .  A
C1658     Br1659   1.923       .  S
C1663      C1664   1.396       .  A
C1663      C1668   1.410       .  A
C1663      H1670   1.083       .  S
C1664      C2289   1.439       .  A
C1665      C2288   1.439       .  A
C1665      C1666   1.392       .  A
C1665     Br1672   1.923       .  S
C1666      C1667   1.382       .  A
C1666      H1671   1.084       .  S
C1667      C2292   1.431       .  A
C1668      C2291   1.431       .  A
C1668     Br1669   1.924       .  S
C1673      C1674   1.394       .  A
C1673      H1680   1.084       .  S
C1674      C2299   1.419       .  A
C1675      C2298   1.419   1_545  A
C1675     Br1682   1.935       .  S
C1676      C1677   1.385       .  A
C1676      H1681   1.083       .  S
C1677      C2302   1.410   1_545  A
C1678      C2301   1.410       .  A
C1678     Br1679   1.919       .  S
C1683      C1684   1.409       .  A
C1683      C1688   1.411       .  A
C1683      H1690   1.084       .  S
C1684      C1994   1.507   1_545  S
C1684      C2309   1.416       .  A
C1685      C2308   1.416       .  A
C1685      C2310   1.409       .  A
C1685     Br1692   1.920       .  S
C1686      C2309   1.409       .  A
C1686      C1687   1.411       .  A
C1686      H1691   1.084       .  S
C1687      C1688   1.419       .  A
C1688     Br1689   1.920       .  S
C1693      C1694   1.397       .  A
C1693      C1698   1.383       .  A
C1693      H1700   1.085       .  S
C1694      C1695   1.410       .  A
C1695      C1696   1.409       .  A
C1695     Br1702   1.915       .  S
C1696      C1697   1.408       .  A
C1696      H1701   1.083       .  S
C1697      C1698   1.417       .  A
C1698     Br1699   1.929       .  S
C1703      C1704   1.400       .  A
C1703      C1708   1.400       .  A
C1703      H1710   1.084       .  S
C1704      C1705   1.412       .  A
C1705      C1706   1.388       .  A
C1705     Br1712   1.915       .  S
C1706      C1707   1.396       .  A
C1706      H1711   1.085       .  S
C1707      C1708   1.407       .  A
C1708     Br1709   1.905       .  S
C1713      C1714   1.417       .  A
C1713      C1718   1.408       .  A
C1713      H1720   1.083       .  S
C1714      C1715   1.400       .  A
C1715      C1716   1.407       .  A
C1715     Br1722   1.916       .  S
C1716      C1717   1.423       .  A
C1716      H1721   1.083       .  S
C1717      C1718   1.408       .  A
C1718     Br1719   1.918       .  S
C1723      C1724   1.394       .  A
C1723      C1728   1.404       .  A
C1724      C1725   1.424       .  A
C1725      C1726   1.406       .  A
C1725     Br1732   1.924       .  S
C1726      C1727   1.400       .  A
C1726      H1731   1.083       .  S
C1727      C1728   1.432       .  A
C1728     Br1729   1.925       .  S
C1733      C2358   1.391       .  A
C1733      C1738   1.362       .  A
C1733      H1740   1.085       .  S
C1734      C2357   1.391   1_545  A
C1734      C2359   1.403   1_645  A
C1735      C2358   1.403   1_455  A
C1735      C1736   1.394   1_455  A
C1736      C1737   1.404       .  A
C1736      H1741   1.083       .  S
C1737      C1738   1.414       .  A
C1738     Br1739   1.933       .  S
C1743      C1744   1.410       .  A
C1743      C1748   1.407       .  A
C1743      H1750   1.083       .  S
C1744      C1745   1.413       .  A
C1745      C1746   1.412       .  A
C1745     Br1752   1.918       .  S
C1746      C1747   1.414       .  A
C1746      H1751   1.084       .  S
C1747      C1748   1.416       .  A
C1748     Br1749   1.921       .  S
C1753      C1754   1.402       .  A
C1753      C1758   1.401       .  A
C1753      H1760   1.083       .  S
C1754      C1755   1.406       .  A
C1755      C1756   1.396       .  A
C1755     Br1762   1.921       .  S
C1758     Br1759   1.919       .  S
C1763      C1764   1.402       .  A
C1763      H1770   1.084       .  S
C1765      C1766   1.393       .  A
C1765     Br1772   1.923       .  S
C1766      C1767   1.397       .  A
C1766      H1771   1.085       .  S
C1767      C1768   1.404       .  A
C1773      C1774   1.397       .  A
C1773      C1778   1.405       .  A
C1773      H1780   1.083       .  S
C1774      C1775   1.433       .  A
C1775      C1776   1.405       .  A
C1775     Br1782   1.927       .  S
C1776      C1777   1.394       .  A
C1776      H1781   1.084       .  S
C1777      C1778   1.428       .  A
C1778     Br1779   1.923       .  S
C1783      C1784   1.419       .  A
C1783      C1788   1.407       .  A
C1783      H1790   1.083       .  S
C1784      C1785   1.417       .  A
C1785      C1786   1.411       .  A
C1785     Br1792   1.919       .  S
C1786      C1787   1.411       .  A
C1786      H1791   1.084       .  S
C1787      C1788   1.403       .  A
C1788     Br1789   1.918       .  S
C1793      C1794   1.398       .  A
C1793      C1798   1.368       .  A
C1793      H1800   1.084       .  S
C1794      C1795   1.407       .  A
C1795      C1796   1.393       .  A
C1796      C1797   1.404       .  A
C1797      C1798   1.410       .  A
C1798     Br1799   1.930       .  S
C1803      C1804   1.402       .  A
C1803      C1808   1.398       .  A
C1803      H2434   1.084       .  S
C1804      C2120   1.461       .  S
C1804      C1805   1.408       .  A
C1805      C1806   1.400       .  A
C1805     Br1812   1.918       .  S
C1806      C1807   1.401       .  A
C1806      H1811   1.084       .  S
C1807      C1808   1.407       .  A
C1808     Br1809   1.917       .  S
H1810      C2427   1.084       .  S
C1813      C1814   1.399       .  A
C1813      C1818   1.401       .  A
C1813      H1820   1.084       .  S
C1814      C1815   1.406       .  A
C1815      C1816   1.395       .  A
C1815     Br1822   1.912       .  S
C1816      C1817   1.404       .  A
C1816      H1821   1.084       .  S
C1817      C1818   1.419       .  A
C1818     Br1819   1.923       .  S
C1823      C1824   1.410       .  A
C1823      C1828   1.406       .  A
C1823      H1830   1.084       .  S
C1824      C1825   1.404       .  A
C1825      C1826   1.403       .  A
C1825     Br1832   1.918       .  S
C1826      C1827   1.414       .  A
C1826      H1831   1.085       .  S
C1827      C1828   1.408       .  A
C1828     Br1829   1.917       .  S
C1833      C1834   1.402       .  A
C1833      H2464   1.085       .  S
C1834      C1835   1.391       .  A
C1835     Br1842   1.923       .  S
C1836      C1837   1.402       .  A
C1836      H1841   1.081       .  S
C1837      C1838   1.400       .  A
C1838     Br1839   1.918       .  S
H1840      C2457   1.084   1_545  S
C1843      C1844   1.417       .  A
C1843      C1848   1.405       .  A
C1843      H1850   1.083       .  S
C1844      C1845   1.408       .  A
C1845      C1846   1.406       .  A
C1845     Br1852   1.918       .  S
C1846      C1847   1.417       .  A
C1846      H1851   1.083       .  S
C1847      C1848   1.409       .  A
C1848     Br2473   1.921       .  S
Br1849     C2472   1.921       .  S
C1853      C1854   1.408       .  A
C1853      C1858   1.413       .  A
C1853      H1860   1.083       .  S
C1854      C1855   1.409       .  A
C1855      C1856   1.401       .  A
C1855     Br1862   1.916       .  S
C1856      C1857   1.404       .  A
C1856      H1861   1.083       .  S
C1857      C1858   1.412       .  A
C1858     Br1859   1.916       .  S
C1863      C1864   1.400       .  A
C1863      C1868   1.399       .  A
C1863      H1870   1.084       .  S
C1864      C1865   1.406       .  A
C1865      C2490   1.399       .  A
C1865     Br2496   1.916       .  S
C1866      C2489   1.399       .  A
C1866      C2491   1.408       .  A
C1866      H1871   1.083   1_565  S
C1867      C1922   1.485       .  S
C1867      C2490   1.408       .  A
C1867      C1868   1.415       .  A
C1868     Br1869   1.920       .  S
Br1872     C2489   1.916       .  S
O1873     Cr1891   1.970       .  S
O1873      C1881   1.263       .  A
O1874     Cr1891   1.959       .  S
O1874      C1875   1.251       .  A
C1875      O1876   1.274       .  A
C1875      C2448   1.478       .  S
O1876     Cr1892   2.028       .  S
O1877     Cr1892   2.064       .  S
O1877      C1878   1.278       .  A
C1878      O1879   1.251       .  A
C1878      C2468   1.503       .  S
O1879     Cr1893   1.946       .  S
O1880     Cr1893   2.021       .  S
O1880      C1881   1.269       .  A
C1881      C2441   1.481       .  S
O1882     Cr1891   1.957       .  S
O1882      C1890   1.250       .  A
O1883     Cr1891   1.969       .  S
O1883      C1884   1.259       .  A
C1884      O1885   1.278       .  A
C1884      C2478   1.489       .  S
O1885     Cr1892   2.056       .  S
O1886     Cr1892   1.981       .  S
O1886      C1887   1.263       .  A
C1887      O1888   1.264       .  A
C1887      C2488   1.469       .  S
O1888     Cr1893   2.011       .  S
O1889     Cr1893   1.970       .  S
O1889      C1890   1.251       .  A
C1890      C2461   1.433       .  S
Cr1891     O1894   1.757       .  S
Cr1892     O1894   1.772       .  S
Cr1893     O1894   1.775       .  S
O1895     Cr1913   2.039       .  S
O1895      C1903   1.276       .  A
O1896     Cr1913   2.077       .  S
O1896      C1897   1.282       .  A
C1897      O1898   1.247       .  A
C1897      C2401   1.497       .  S
O1898     Cr1914   1.939       .  S
O1899     Cr1914   2.016       .  S
O1899      C1900   1.269       .  A
C1900      C2388   1.465       .  S
O1901     Cr1915   1.963       .  S
O1902     Cr1915   1.972       .  S
O1904     Cr1913   2.062       .  S
O1905     Cr1913   1.985       .  S
O1905      C1906   1.262       .  A
C1906      O1907   1.262       .  A
C1906      C2431   1.467       .  S
O1907     Cr1914   2.009       .  S
O1908     Cr1914   1.963       .  S
C1909      O1910   1.249       .  A
C1909      C2421   1.445       .  S
O1910     Cr1915   1.966       .  S
O1911     Cr1915   1.966       .  S
O1911      C1912   1.259       .  A
C1912      C2481   1.491       .  S
Cr1913     O1916   1.765       .  S
Cr1914     O1916   1.771       .  S
O1917     Cr1935   2.047       .  S
O1918     Cr1935   2.072       .  S
O1918      C1919   1.276       .  A
C1919      O1920   1.249       .  A
C1919      C2408   1.514       .  S
O1920     Cr1936   1.945       .  S
O1921     Cr1936   2.028       .  S
O1921      C1922   1.274       .  A
O1923     Cr1937   1.969       .  S
O1924     Cr1937   1.969       .  S
O1924      C1925   1.251       .  A
C1925      C2398   1.502       .  S
O1926      C1934   1.281       .  A
O1927     Cr1935   1.974       .  S
O1927      C1928   1.263       .  A
C1928      O1929   1.268       .  A
C1928      C2378   1.466       .  S
O1929     Cr1936   2.021       .  S
O1930     Cr1936   1.963       .  S
C1931      O1932   1.253       .  A
C1931      C2418   1.447       .  S
O1932     Cr1937   1.965       .  S
O1933     Cr1937   1.988       .  S
O1933      C1934   1.268       .  A
C1934      C2371   1.510       .  S
Cr1935     O1938   1.761       .  S
Cr1936     O1938   1.770       .  S
O1939     Cr1957   2.041       .  S
O1939      C1947   1.278       .  A
O1940     Cr1957   2.081       .  S
O1940      C1941   1.282       .  A
C1941      O1942   1.245       .  A
C1941      C2351   1.503       .  S
O1942     Cr1958   1.942       .  S
O1943     Cr1958   2.013       .  S
O1943      C1944   1.265       .  A
C1944      O1945   1.265       .  A
C1944      C2328   1.464       .  S
O1945     Cr1959   1.981       .  S
O1946     Cr1959   1.967       .  S
O1946      C1947   1.256       .  A
C1947      C2341   1.509       .  S
O1948     Cr1957   2.060       .  S
O1948      C1956   1.281       .  A
O1949     Cr1957   1.975       .  S
O1949      C1950   1.259       .  A
C1950      O1951   1.260       .  A
C1950      C2391   1.459       .  S
O1951     Cr1958   2.006       .  S
O1952     Cr1958   1.973       .  S
O1952      C1953   1.253       .  A
C1953      O1954   1.247       .  A
C1953      C2361   1.442       .  S
O1954     Cr1959   1.946       .  S
O1955     Cr1959   1.973       .  S
O1955      C1956   1.261       .  A
C1956      C2368   1.505       .  S
Cr1957     O1960   1.765       .  S
Cr1958     O1960   1.773       .  S
Cr1959     O1960   1.747       .  S
O1961     Cr1979   1.968       .  S
O1962     Cr1979   1.969       .  S
C1963      O1964   1.277       .  A
O1964     Cr1980   2.033       .  S
O1965     Cr1980   2.076       .  S
O1965      C1966   1.277       .  A
C1966      O1967   1.245       .  A
C1966      C2338   1.498       .  S
O1967     Cr1981   1.937       .  S
O1968     Cr1981   2.032       .  S
O1968      C1969   1.275       .  A
C1969      C2381   1.472       .  S
O1970     Cr1979   1.966       .  S
O1970      C1978   1.253   1_655  A
O1971     Cr1979   1.991       .  S
O1971      C1972   1.269       .  A
C1972      C2311   1.511       .  S
O1973     Cr1980   2.052       .  S
O1974     Cr1980   1.944       .  S
O1974      C1975   1.258       .  A
C1975      O1976   1.270       .  A
C1975      C2318   1.472       .  S
O1976     Cr1981   2.035       .  S
O1977     Cr1981   1.956       .  S
C1978      C2358   1.434   1_455  S
Cr1980     O1982   1.762       .  S
Cr1981     O1982   1.775       .  S
O1983     Cr2001   1.995       .  S
O1983      C1991   1.272       .  A
O1984     Cr2001   1.947       .  S
O1984      C1985   1.245       .  A
C1985      O1986   1.280       .  A
C1985      C2291   1.487   1_565  S
O1986     Cr2002   2.038       .  S
O1987     Cr2002   2.069       .  S
O1987      C1988   1.279       .  A
C1988      O1989   1.249       .  A
C1988      C2281   1.506       .  S
O1989     Cr2003   1.944       .  S
O1990     Cr2003   2.003       .  S
O1990      C1991   1.271       .  A
C1991      C2271   1.480       .  S
O1992     Cr2001   1.923       .  S
O1992      C2000   1.234       .  A
O1993     Cr2001   1.998       .  S
O1993      C1994   1.270       .  A
C1994      O1995   1.278       .  A
O1995     Cr2002   2.043       .  S
O1996     Cr2002   1.967       .  S
O1996      C1997   1.260       .  A
C1997      O1998   1.261       .  A
C1997      C2331   1.467       .  S
O1998     Cr2003   2.004       .  S
O1999     Cr2003   1.987       .  S
O1999      C2000   1.256       .  A
C2000      C2298   1.435       .  S
Cr2001     O2004   1.758       .  S
Cr2002     O2004   1.762       .  S
Cr2003     O2004   1.773       .  S
O2005     Cr2023   2.076       .  S
O2005      C2013   1.290       .  A
O2006     Cr2023   2.062       .  S
O2006      C2007   1.287       .  A
C2007      O2008   1.240       .  A
C2007      C2288   1.498       .  S
O2008     Cr2024   1.902       .  S
O2009     Cr2024   2.010       .  S
O2009      C2010   1.262       .  A
C2010      O2011   1.253       .  A
C2010      C2321   1.478       .  S
O2011     Cr2025   1.978       .  S
O2012     Cr2025   1.951       .  S
O2012      C2013   1.258       .  A
C2013      C2278   1.493       .  S
O2014     Cr2023   2.056       .  S
O2014      C2022   1.265       .  A
O2015     Cr2023   1.975       .  S
O2015      C2016   1.261       .  A
O2018     Cr2024   1.948       .  S
O2018      C2019   1.253       .  A
C2019      O2020   1.257       .  A
C2019      C2301   1.428       .  S
O2020     Cr2025   1.957       .  S
O2021     Cr2025   1.977       .  S
O2021      C2022   1.244       .  A
C2022      C2248   1.515       .  S
Cr2023     O2026   1.772       .  S
Cr2024     O2026   1.770       .  S
Cr2025     O2026   1.764       .  S
O2027     Cr2045   2.023       .  S
O2027      C2035   1.273       .  A
O2028     Cr2045   2.088       .  S
O2028      C2029   1.282       .  A
C2029      O2030   1.249       .  A
C2029      C2221   1.507       .  S
O2030     Cr2046   1.943       .  S
O2031     Cr2046   2.029       .  S
O2031      C2032   1.271       .  A
C2032      O2033   1.257       .  A
C2032      C2208   1.470       .  S
O2033     Cr2047   1.968       .  S
O2034     Cr2047   1.969   1_455  S
O2034      C2035   1.254   1_455  A
C2035      C2228   1.477   1_655  S
O2036     Cr2045   2.072       .  S
O2036      C2044   1.285   1_655  A
O2037     Cr2045   1.972       .  S
O2037      C2038   1.261       .  A
O2040     Cr2046   1.968       .  S
O2040      C2041   1.253       .  A
C2041      O2042   1.258       .  A
C2041      C2241   1.450       .  S
O2042     Cr2047   1.976       .  S
Cr2045     O2048   1.765       .  S
Cr2046     O2048   1.774       .  S
Cr2047     O2048   1.753       .  S
O2049     Cr2067   2.036       .  S
O2049      C2057   1.276       .  A
O2050     Cr2067   2.075       .  S
O2050      C2051   1.279       .  A
C2051      O2052   1.248       .  A
C2051      C2231   1.502       .  S
O2052     Cr2068   1.940       .  S
O2053     Cr2068   2.013       .  S
O2053      C2054   1.267       .  A
C2054      O2055   1.262       .  A
C2054      C2261   1.471       .  S
O2055     Cr2069   1.961       .  S
O2056     Cr2069   1.980       .  S
O2056      C2057   1.257       .  A
C2057      C2218   1.505   1_565  S
O2058     Cr2067   2.055       .  S
O2058      C2066   1.281       .  A
O2059     Cr2067   1.969       .  S
O2059      C2060   1.260       .  A
C2060      O2061   1.266       .  A
C2060      C2198   1.475       .  S
O2061     Cr2068   2.014       .  S
O2062     Cr2068   1.971       .  S
O2062      C2063   1.254       .  A
C2063      O2064   1.252       .  A
C2063      C2238   1.450       .  S
O2064     Cr2069   1.972       .  S
O2065     Cr2069   1.970       .  S
O2065      C2066   1.262       .  A
Cr2067     O2070   1.761       .  S
Cr2068     O2070   1.770       .  S
Cr2069     O2070   1.749       .  S
O2071     Cr2089   2.044       .  S
O2071      C2079   1.280       .  A
O2072     Cr2089   2.084       .  S
O2072      C2073   1.281   1_554  A
C2073      O2074   1.251       .  A
C2073      C2161   1.518       .  S
O2074     Cr2090   1.946       .  S
O2075     Cr2090   2.019       .  S
O2075      C2076   1.268       .  A
C2076      O2077   1.257       .  A
C2076      C2151   1.468       .  S
O2077     Cr2091   1.961       .  S
O2078     Cr2091   1.984   1_554  S
O2078      C2079   1.260       .  A
C2079      C2168   1.515       .  S
O2080     Cr2089   2.056       .  S
O2080      C2088   1.279       .  A
O2081     Cr2089   1.980       .  S
O2081      C2082   1.262       .  A
C2082      O2083   1.264       .  A
C2082      C2211   1.468       .  S
O2083     Cr2090   2.016   1_554  S
O2084     Cr2090   1.949   1_554  S
O2084      C2085   1.249       .  A
C2085      O2086   1.260   1_554  A
C2085      C2178   1.440       .  S
O2086     Cr2091   1.986       .  S
O2087     Cr2091   1.959   1_554  S
O2087      C2088   1.258       .  A
C2088      C2188   1.496       .  S
Cr2089     O2092   1.767       .  S
Cr2090     O2092   1.777   1_556  S
Cr2091     O2092   1.756   1_556  S
O2093     Cr2111   1.948   1_554  S
O2093      C2101   1.251       .  A
O2094     Cr2111   1.976   1_455  S
O2094      C2095   1.254   1_455  A
C2095      O2096   1.277       .  A
C2095      C2158   1.499   1_655  S
O2096     Cr2112   2.046       .  S
O2097     Cr2112   2.081       .  S
O2097      C2098   1.280       .  A
C2098      O2099   1.251   1_556  A
C2098      C2171   1.509       .  S
O2099     Cr2113   1.946       .  S
O2100     Cr2113   2.051       .  S
O2100      C2101   1.273       .  A
C2101      C2201   1.482       .  S
O2102     Cr2111   1.988   1_554  S
O2102      C2110   1.258       .  A
C2104      O2105   1.286   1_455  A
O2105     Cr2112   2.071       .  S
O2106     Cr2112   1.971       .  S
O2106      C2107   1.263       .  A
C2107      O2108   1.270       .  A
C2107      C2438   1.468       .  S
O2108     Cr2113   2.029   1_556  S
O2109     Cr2113   1.951       .  S
O2109      C2110   1.252       .  A
C2110      C2181   1.458       .  S
Cr2111     O2114   1.746       .  S
Cr2112     O2114   1.763       .  S
Cr2113     O2114   1.777   1_554  S
O2115     Cr2133   2.059       .  S
O2116     Cr2133   2.035       .  S
O2116      C2117   1.279       .  A
C2117      O2118   1.251       .  A
C2117      C2451   1.478       .  S
O2118     Cr2134   1.934       .  S
O2119     Cr2134   1.994       .  S
O2119      C2120   1.266       .  A
O2121     Cr2135   1.982       .  S
O2122     Cr2135   1.950       .  S
O2122      C2123   1.255       .  A
C2123      C2471   1.503       .  S
O2124      C2132   1.265       .  A
O2125     Cr2133   2.003       .  S
O2125      C2126   1.266       .  A
C2126      O2127   1.262       .  A
C2126      C2148   1.468       .  S
O2127     Cr2134   1.983       .  S
O2128     Cr2134   1.945       .  S
C2129      O2130   1.255       .  A
C2129      C2458   1.421       .  S
O2130     Cr2135   1.960       .  S
O2131     Cr2135   1.992       .  S
O2131      C2132   1.255       .  A
C2132      C2141   1.505       .  S
Cr2133     O2136   1.772       .  S
Cr2134     O2136   1.771       .  S
C2137      C2138   1.404       .  A
C2137      C2142   1.407       .  A
C2137      H2144   1.083       .  S
C2138      C2139   1.426       .  A
C2139      C2140   1.406       .  A
C2139     Br2146   1.926       .  S
C2140      C2141   1.404       .  A
C2140      H2145   1.083       .  S
C2141      C2142   1.423       .  A
C2142     Br2143   1.922       .  S
C2147      C2148   1.403       .  A
C2147      C2152   1.396       .  A
C2147      H2154   1.084       .  S
C2148      C2149   1.409       .  A
C2149      C2150   1.398       .  A
C2149     Br2156   1.919       .  S
C2150      C2151   1.403       .  A
C2150      H2155   1.084       .  S
C2151      C2152   1.409       .  A
C2152     Br2153   1.921       .  S
C2157      C2162   1.411       .  A
C2157      H2164   1.084       .  S
C2158      C2159   1.404       .  A
C2159     Br2166   1.917   1_455  S
C2160      C2161   1.422       .  A
C2160      H2165   1.083       .  S
C2161      C2162   1.416   1_556  A
C2162     Br2163   1.919       .  S
C2167      C2168   1.422   1_556  A
C2167      C2172   1.411       .  A
C2167      H2174   1.083       .  S
C2168      C2169   1.411       .  A
C2169      C2170   1.412       .  A
C2169     Br2176   1.918       .  S
C2170      C2171   1.417   1_554  A
C2170      H2175   1.083       .  S
C2171      C2172   1.404       .  A
C2172     Br2173   1.916       .  S
C2177      C2182   1.382       .  A
C2179      C2180   1.391   1_556  A
C2180      C2181   1.407       .  A
C2180      H2185   1.084   1_554  S
C2182     Br2183   1.926       .  S
C2187      C2188   1.410       .  A
C2187      C2192   1.405       .  A
C2187      H2194   1.084       .  S
C2188      C2189   1.409       .  A
C2189      C2190   1.407       .  A
C2189     Br2196   1.919       .  S
C2190      C2191   1.414       .  A
C2190      H2195   1.082       .  S
C2191      C2192   1.413       .  A
C2197      C2202   1.408       .  A
C2197      H2204   1.084       .  S
C2198      C2199   1.407       .  A
C2199      C2200   1.384       .  A
C2199     Br2206   1.924       .  S
C2200      H2205   1.084       .  S
C2201      C2202   1.410       .  A
C2202     Br2203   1.918       .  S
C2207      C2208   1.402       .  A
C2208      C2209   1.410       .  A
C2209      C2210   1.403   1_655  A
C2209     Br2216   1.918       .  S
C2210      H2215   1.084       .  S
C2211      C2212   1.406       .  A
C2212     Br2213   1.919       .  S
C2217      C2222   1.411       .  A
C2217      H2224   1.083       .  S
C2218      C2219   1.407   1_545  A
C2219      C2220   1.407   1_565  A
C2219     Br2226   1.919       .  S
C2220      H2225   1.083       .  S
C2221      C2222   1.406       .  A
C2222     Br2223   1.916       .  S
C2227      C2228   1.405       .  A
C2227      H2234   1.084       .  S
C2229      C2230   1.403       .  A
C2229     Br2236   1.919       .  S
C2230      C2231   1.416       .  A
C2230      H2235   1.084       .  S
C2231      C2232   1.415       .  A
C2232     Br2233   1.911       .  S
C2237      C2242   1.399       .  A
C2237      H2244   1.084       .  S
C2239      C2240   1.368       .  A
C2239     Br2246   1.929       .  S
C2240      H2245   1.082       .  S
C2242     Br2243   1.918       .  S
C2247      C2248   1.404       .  A
C2247      C2252   1.413       .  A
C2247      H2254   1.083       .  S
C2248      C2249   1.428       .  A
C2249      C2250   1.410       .  A
C2249     Br2256   1.923       .  S
C2250      C2251   1.403       .  A
C2250      H2255   1.083       .  S
C2251      C2252   1.423       .  A
C2252     Br2253   1.916       .  S
C2257      C2258   1.400       .  A
C2257      C2262   1.396       .  A
C2257      H2264   1.082       .  S
C2258      C2259   1.411       .  A
C2259      C2260   1.390       .  A
C2260      C2261   1.402       .  A
C2260      H2265   1.084       .  S
C2261      C2262   1.416       .  A
C2262     Br2263   1.923       .  S
C2267      C2268   1.407       .  A
C2267      C2272   1.406   1_545  A
C2267      H2274   1.084       .  S
C2268      C2269   1.401   1_545  A
C2269      C2270   1.392       .  A
C2269     Br2276   1.922       .  S
C2270      C2271   1.410       .  A
C2270      H2275   1.084       .  S
C2271      C2272   1.407       .  A
C2272     Br2273   1.915       .  S
C2277      C2278   1.402       .  A
C2277      C2282   1.405       .  A
C2277      H2284   1.084       .  S
C2278      C2279   1.416       .  A
C2279      C2280   1.411       .  A
C2279     Br2286   1.923       .  S
C2280      C2281   1.408       .  A
C2280      H2285   1.084       .  S
C2281      C2282   1.423       .  A
C2282     Br2283   1.923       .  S
C2287      C2288   1.396       .  A
C2287      C2292   1.410       .  A
C2287      H2294   1.083       .  S
C2289      C2290   1.392   1_545  A
C2289     Br2296   1.923   1_545  S
C2290      C2291   1.383   1_565  A
C2290      H2295   1.084       .  S
C2292     Br2293   1.924       .  S
C2297      C2298   1.394       .  A
C2297      H2304   1.084       .  S
C2299     Br2306   1.935       .  S
C2300      C2301   1.385       .  A
C2300      H2305   1.083       .  S
C2302     Br2303   1.919       .  S
C2307      C2308   1.409       .  A
C2307      C2312   1.411       .  A
C2307      H2314   1.084       .  S
C2309     Br2316   1.920   1_545  S
C2310      C2311   1.411       .  A
C2310      H2315   1.084       .  S
C2311      C2312   1.419       .  A
C2312     Br2313   1.920       .  S
C2317      C2318   1.397       .  A
C2317      C2322   1.383       .  A
C2317      H2324   1.085       .  S
C2318      C2319   1.410       .  A
C2319      C2320   1.409       .  A
C2319     Br2326   1.915       .  S
C2320      C2321   1.408       .  A
C2320      H2325   1.083       .  S
C2321      C2322   1.417       .  A
C2322     Br2323   1.929       .  S
C2327      C2328   1.400       .  A
C2327      C2332   1.400       .  A
C2327      H2334   1.084       .  S
C2328      C2329   1.412       .  A
C2329      C2330   1.388       .  A
C2329     Br2336   1.915       .  S
C2330      C2331   1.396       .  A
C2330      H2335   1.085       .  S
C2331      C2332   1.407       .  A
C2332     Br2333   1.905       .  S
C2337      C2338   1.417       .  A
C2337      C2342   1.408       .  A
C2337      H2344   1.083       .  S
C2338      C2339   1.400       .  A
C2339      C2340   1.407       .  A
C2339     Br2346   1.916       .  S
C2340      C2341   1.423       .  A
C2340      H2345   1.083       .  S
C2341      C2342   1.408       .  A
C2342     Br2343   1.918       .  S
C2347      C2348   1.394       .  A
C2347      C2352   1.404       .  A
C2348      C2349   1.424       .  A
C2349      C2350   1.406       .  A
C2349     Br2356   1.924       .  S
C2350      C2351   1.400       .  A
C2350      H2355   1.083       .  S
C2351      C2352   1.432       .  A
C2352     Br2353   1.925       .  S
C2357      C2362   1.362       .  A
C2357      H2364   1.085   1_565  S
C2359      C2360   1.394   1_455  A
C2360      C2361   1.404       .  A
C2360      H2365   1.083       .  S
C2361      C2362   1.414       .  A
C2362     Br2363   1.933       .  S
C2367      C2368   1.410       .  A
C2367      C2372   1.407       .  A
C2367      H2374   1.083       .  S
C2368      C2369   1.413       .  A
C2369      C2370   1.412       .  A
C2369     Br2376   1.918       .  S
C2370      C2371   1.414       .  A
C2370      H2375   1.084       .  S
C2371      C2372   1.416       .  A
C2372     Br2373   1.921       .  S
C2377      C2378   1.402       .  A
C2377      C2382   1.401       .  A
C2377      H2384   1.083       .  S
C2378      C2379   1.406       .  A
C2379      C2380   1.396       .  A
C2379     Br2386   1.921       .  S
C2382     Br2383   1.919       .  S
C2387      C2388   1.402       .  A
C2387      H2394   1.084       .  S
C2389      C2390   1.393       .  A
C2389     Br2396   1.923       .  S
C2390      C2391   1.397       .  A
C2390      H2395   1.085       .  S
C2391      C2392   1.404       .  A
C2397      C2398   1.397       .  A
C2397      C2402   1.405       .  A
C2397      H2404   1.083       .  S
C2398      C2399   1.433       .  A
C2399      C2400   1.405       .  A
C2399     Br2406   1.927       .  S
C2400      C2401   1.394       .  A
C2400      H2405   1.084       .  S
C2401      C2402   1.428       .  A
C2402     Br2403   1.923       .  S
C2407      C2408   1.419       .  A
C2407      C2412   1.407       .  A
C2407      H2414   1.083       .  S
C2408      C2409   1.417       .  A
C2409      C2410   1.411       .  A
C2409     Br2416   1.919       .  S
C2410      C2411   1.411       .  A
C2410      H2415   1.084       .  S
C2411      C2412   1.403       .  A
C2412     Br2413   1.918       .  S
C2417      C2418   1.398       .  A
C2417      C2422   1.368       .  A
C2417      H2424   1.084       .  S
C2418      C2419   1.407       .  A
C2419      C2420   1.393       .  A
C2420      C2421   1.404       .  A
C2421      C2422   1.410       .  A
C2422     Br2423   1.930       .  S
C2427      C2428   1.402       .  A
C2427      C2432   1.398       .  A
C2428      C2429   1.408       .  A
C2429      C2430   1.400       .  A
C2429     Br2436   1.918       .  S
C2430      C2431   1.401       .  A
C2430      H2435   1.084       .  S
C2431      C2432   1.407       .  A
C2432     Br2433   1.917       .  S
C2437      C2438   1.399       .  A
C2437      C2442   1.401       .  A
C2437      H2444   1.084       .  S
C2438      C2439   1.406       .  A
C2439      C2440   1.395       .  A
C2439     Br2446   1.912       .  S
C2440      C2441   1.404       .  A
C2440      H2445   1.084       .  S
C2441      C2442   1.419       .  A
C2442     Br2443   1.923       .  S
C2447      C2448   1.410       .  A
C2447      C2452   1.406       .  A
C2447      H2454   1.084       .  S
C2448      C2449   1.404       .  A
C2449      C2450   1.403       .  A
C2449     Br2456   1.918       .  S
C2450      C2451   1.414       .  A
C2450      H2455   1.085       .  S
C2451      C2452   1.408       .  A
C2452     Br2453   1.917       .  S
C2457      C2458   1.403       .  A
C2458      C2459   1.391       .  A
C2459     Br2466   1.923       .  S
C2460      C2461   1.402       .  A
C2460      H2465   1.080       .  S
C2461      C2462   1.400       .  A
C2462     Br2463   1.918       .  S
C2467      C2468   1.417       .  A
C2467      C2472   1.405       .  A
C2467      H2474   1.083       .  S
C2468      C2469   1.408       .  A
C2469      C2470   1.406       .  A
C2469     Br2476   1.918       .  S
C2470      C2471   1.417       .  A
C2470      H2475   1.083       .  S
C2471      C2472   1.409       .  A
C2477      C2478   1.408       .  A
C2477      C2482   1.413       .  A
C2477      H2484   1.083       .  S
C2478      C2479   1.409       .  A
C2479      C2480   1.401       .  A
C2479     Br2486   1.916       .  S
C2480      C2481   1.404       .  A
C2480      H2485   1.083       .  S
C2481      C2482   1.412       .  A
C2482     Br2483   1.916       .  S
C2487      C2488   1.400       .  A
C2487      C2492   1.399       .  A
C2487      H2494   1.084       .  S
C2488      C2489   1.406       .  A
C2490      H2495   1.083       .  S
C2491      C2492   1.415       .  A
C2492     Br2493   1.920       .  S
