geometry optimzed in LAMMPS
_audit_creation_date              2020-12-01 
_audit_creation_method            'lammps2cif' 
_symmetry_space_group_name_H-M    'P1' 
_symmetry_Int_Tables_number       1 
_symmetry_cell_setting            triclinic 
loop_ 
_symmetry_equiv_pos_as_xyz 
  x,y,z 
_cell_length_a                    43.35848711 
_cell_length_b                    43.38137555023954 
_cell_length_c                    38.96767055122878 
_cell_angle_alpha                 90.90770834719584 
_cell_angle_beta                  89.6683705399104 
_cell_angle_gamma                 121.06360635660207 
loop_ 
_atom_site_label 
_atom_site_type_symbol 
_atom_site_fract_x 
_atom_site_fract_y 
_atom_site_fract_z 
_atom_site_charge 
Fe1        Fe  0.48766525  0.73896546  0.23568009     1.65800
Fe2        Fe  0.52977039  0.71204857  0.28892288     1.73200
Fe3        Fe  0.51184307  0.77788203  0.31269677     1.54400
O4          O  0.52600328  0.81645429  0.27238689    -0.81100
O5          O  0.51131344  0.70305733  0.33830932    -0.79400
O6          O  0.52747241  0.78964752  0.22323457    -0.83600
O7          O  0.45726615  0.76011047  0.25170458    -0.78400
O8          O  0.56537514  0.79785735  0.32166597    -0.80200
O9          O  0.47981890  0.66679813  0.27574266    -0.83000
C10         C  0.44403663  0.76171163  0.28002952     0.97800
C11         C  0.53228781  0.81734967  0.23980934     1.05200
O12         O  0.51071893  0.74324816  0.27924595    -1.11900
O13         O  0.55036824  0.71246382  0.23996326    -0.74400
O14         O  0.51082409  0.71607850  0.20785161    -0.77900
O15         O  0.45799426  0.76075403  0.30795056    -0.78600
C16         C  0.53438582  0.70774431  0.21145998     0.96700
O17         O  0.44876240  0.68905658  0.25050248    -0.76500
O18         O  0.57943516  0.75685862  0.30447596    -0.81700
C19         C  0.49837686  0.71473642  0.36054569     0.99300
C20         C  0.58781433  0.78758413  0.31761143     1.05200
O21         O  0.49639676  0.74265544  0.35519780    -0.77300
C22         C  0.45055574  0.66359379  0.26447530     1.03500
Fe23       Fe  0.83163486  0.92582708  0.44486630     1.65800
Fe24       Fe  0.79566349  0.96186205  0.39469305     1.73200
Fe25       Fe  0.80654817  0.89277708  0.36571704     1.54400
O26         O  0.85871761  0.90348304  0.37044859    -0.81100
O27         O  0.74468701  0.92150935  0.37671334    -0.79400
O28         O  0.85986897  0.90326316  0.42650927    -0.83600
O29         O  0.78942992  0.87529424  0.45453647    -0.78400
O30         O  0.82534905  0.93178770  0.32571390    -0.80200
O31         O  0.77393690  0.95827987  0.44318880    -0.83000
C32         C  0.78302003  0.84812060  0.43594761     0.97800
C33         C  0.87116632  0.89915098  0.39802142     1.05200
O34         O  0.81032151  0.92647936  0.40159503    -1.11900
O35         O  0.84723660  0.00333716  0.41046787    -0.74400
O36         O  0.87318178  0.97461280  0.43225037    -0.77900
O37         O  0.78883761  0.85082100  0.40321654    -0.78600
C38         C  0.87512229  0.00244327  0.41977502     0.96700
O39         O  0.81070405  0.94991507  0.47486622    -0.76500
O40         O  0.81502992  0.97380207  0.34577105    -0.81700
C41         C  0.73393096  0.89096303  0.36194932     0.99300
C42         C  0.82604662  0.96151103  0.32231163     1.05200
O43         O  0.75417004  0.87815901  0.35691259    -0.77300
C44         C  0.78873218  0.96046681  0.47171851     1.03500
Fe45       Fe  0.25081135  0.75257896  0.23235861     1.65800
Fe46       Fe  0.28396038  0.82350995  0.28764552     1.73200
Fe47       Fe  0.21209806  0.74043031  0.30915748     1.54400
O48         O  0.17317683  0.71584780  0.26910370    -0.81100
O49         O  0.29137316  0.81364121  0.33745141    -0.79400
O50         O  0.20021524  0.74145578  0.21973275    -0.83600
O51         O  0.22917495  0.70090843  0.24825233    -0.78400
O52         O  0.19668347  0.77762164  0.31724478    -0.80200
O53         O  0.32632807  0.81505632  0.27500112    -0.83000
C54         C  0.22308911  0.68451798  0.27611347     0.97800
C55         C  0.17234228  0.71909246  0.23641788     1.05200
O56         O  0.24874794  0.77276165  0.27645830    -1.11900
O57         O  0.28690910  0.84491660  0.23917268    -0.74400
O58         O  0.27491059  0.79907839  0.20502195    -0.77900
O59         O  0.22346033  0.69971348  0.30423638    -0.78600
C60         C  0.28824398  0.83233003  0.20996885     0.96700
O61         O  0.29985631  0.76225308  0.24657748    -0.76500
O62         O  0.24180090  0.83231369  0.30189638    -0.81700
C63         C  0.27688120  0.78834825  0.35866937     0.99300
C64         C  0.20967952  0.81115759  0.31303519     1.05200
O65         O  0.24711892  0.75937405  0.35221584    -0.77300
C66         C  0.32683432  0.78795182  0.26202070     1.03500
Fe67       Fe  0.06350975  0.91144569  0.43869278     1.65800
Fe68       Fe  0.03464161  0.83967146  0.38582500     1.73200
Fe69       Fe  0.10166099  0.92377750  0.36204959     1.54400
O70         O  0.08746510  0.96282377  0.36693374    -0.81100
O71         O  0.07832443  0.83381716  0.37110496    -0.79400
O72         O  0.08699037  0.96315225  0.42294822    -0.83600
O73         O  0.11377107  0.92217699  0.45141885    -0.78400
O74         O  0.06479592  0.90199296  0.32014844    -0.80200
O75         O  0.03580490  0.82138062  0.43487291    -0.83000
C76         C  0.14165010  0.94502102  0.43495927     0.97800
C77         C  0.09022326  0.97881621  0.39519413     1.05200
O78         O  0.06683763  0.89104723  0.39532072    -1.11900
O79         O  0.99082471  0.84593148  0.39859140    -0.74400
O80         O  0.01419523  0.90114813  0.42331647    -0.77900
O81         O  0.14084061  0.94935909  0.40231047    -0.78600
C82         C  0.98868217  0.87315075  0.40864110     0.96700
O83         O  0.03882339  0.86535017  0.46624599    -0.76500
O84         O  0.02482245  0.84652335  0.33588750    -0.81700
C85         C  0.10938146  0.85599748  0.35846870     0.99300
C86         C  0.03610053  0.87152288  0.31437413     1.05200
O87         O  0.12010466  0.88894480  0.35340146    -0.77300
C88         C  0.03086556  0.83320817  0.46301410     1.03500
Fe89       Fe  0.23697465  0.50387516  0.23434588     1.65800
Fe90       Fe  0.16623955  0.46124155  0.28726514     1.73200
Fe91       Fe  0.25035998  0.48044887  0.31124345     1.54400
O92         O  0.27602030  0.46775921  0.27050191    -0.81100
O93         O  0.17545499  0.48023198  0.33641860    -0.79400
O94         O  0.24757394  0.46431954  0.22143360    -0.83600
O95         O  0.28882895  0.53400708  0.25081597    -0.78400
O96         O  0.21598992  0.42669844  0.31948243    -0.80200
O97         O  0.17247341  0.51110351  0.27420952    -0.83000
C98         C  0.30386743  0.54812904  0.27894511     0.97800
C99         C  0.27139484  0.46150504  0.23780551     1.05200
O100        O  0.21712385  0.48077378  0.27776308    -1.11900
O101        O  0.14630112  0.43960997  0.23840738    -0.74400
O102        O  0.19022504  0.48027588  0.20677057    -0.77900
O103        O  0.28779383  0.53497157  0.30688115    -0.78600
C104        C  0.15780098  0.45590908  0.21024157     0.96700
O105        O  0.22722297  0.54333628  0.24942547    -0.76500
O106        O  0.16014936  0.41194470  0.30331992    -0.81700
C107        C  0.19873488  0.49122305  0.35994788     0.99300
C108        C  0.18245766  0.40413805  0.31636861     1.05200
O109        O  0.22901267  0.49349659  0.35486467    -0.77300
C110        C  0.19959377  0.54080504  0.26391704     1.03500
Fe111      Fe  0.08750276  0.16006724  0.44436926     1.65800
Fe112      Fe  0.16026366  0.20532722  0.39343023     1.73200
Fe113      Fe  0.07581275  0.18512131  0.36786829     1.54400
O114        O  0.03781680  0.13091355  0.37025664    -0.81100
O115        O  0.16599907  0.25488061  0.37932520    -0.79400
O116        O  0.03632370  0.12840539  0.42638287    -0.83600
O117        O  0.07445865  0.19766378  0.45784299    -0.78400
O118        O  0.09793976  0.17108181  0.32583748    -0.80200
O119        O  0.17839106  0.22452376  0.44363632    -0.83000
C120        C  0.05194196  0.20198562  0.44087165     0.97800
C121        C  0.02198979  0.11583462  0.39761058     1.05200
O122        O  0.10854539  0.18454654  0.40185191    -1.11900
O123        O  0.15508980  0.15564823  0.40458699    -0.74400
O124        O  0.10026915  0.12297283  0.42889013    -0.77900
O125        O  0.04867010  0.19717572  0.40791558    -0.78600
C126        C  0.12837169  0.12583321  0.41497747     0.96700
O127        O  0.13266866  0.18415992  0.47390975    -0.76500
O128        O  0.15338668  0.18854151  0.34302157    -0.81700
C129        C  0.14385193  0.26226189  0.36525999     0.99300
C130        C  0.12871983  0.17458078  0.32062868     1.05200
O131        O  0.11069076  0.23906876  0.36053448    -0.77300
C132        C  0.16536062  0.20800090  0.47155509     1.03500
Fe133      Fe  0.59288364  0.16992231  0.39207819     1.65800
Fe134      Fe  0.61629896  0.12288519  0.44383296     1.73200
Fe135      Fe  0.55278568  0.14368555  0.46890341     1.54400
O136        O  0.56610579  0.19660308  0.46465357    -0.81100
O137        O  0.57018378  0.07312781  0.45721980    -0.79400
O138        O  0.57766149  0.20476026  0.40962802    -0.83600
O139        O  0.54017516  0.13445166  0.37910957    -0.78400
O140        O  0.59021578  0.16093997  0.50952324    -0.80200
O141        O  0.61613793  0.10416693  0.39361801    -0.83000
C142        C  0.51234021  0.12609043  0.39720153     0.97800
C143        C  0.56864736  0.21309095  0.43737253     1.05200
O144        O  0.58702122  0.14487705  0.43485682    -1.11900
O145        O  0.66334999  0.17171295  0.43262430    -0.74400
O146        O  0.64481641  0.20514710  0.40597757    -0.77900
O147        O  0.51321586  0.12846806  0.43015977    -0.78600
C148        C  0.66914490  0.20130750  0.41995893     0.96700
O149        O  0.61067494  0.14313660  0.36253486    -0.76500
O150        O  0.62537088  0.13953179  0.49469706    -0.81700
C151        C  0.54102216  0.06608834  0.47265967     0.99300
C152        C  0.61610641  0.15588303  0.51570246     1.05200
O153        O  0.53329144  0.09015902  0.47887617    -0.77300
C154        C  0.61965255  0.11998711  0.36537995     1.03500
Fe155      Fe  0.39625981  0.82324652  0.60897174     1.65800
Fe156      Fe  0.36401255  0.86254477  0.55859865     1.73200
Fe157      Fe  0.43176028  0.84973231  0.53142379     1.54400
O158        O  0.47166546  0.86430114  0.57132914    -0.81100
O159        O  0.35486335  0.84639501  0.50844110    -0.79400
O160        O  0.44557531  0.86571802  0.62056297    -0.83600
O161        O  0.41989123  0.79564381  0.59042511    -0.78400
O162        O  0.44945694  0.90311642  0.52507338    -0.80200
O163        O  0.32140450  0.80953957  0.57012487    -0.83000
C164        C  0.41874792  0.78173315  0.56144335     0.97800
C165        C  0.47316961  0.87108814  0.60394857     1.05200
O166        O  0.39735190  0.84592796  0.56610915    -1.11900
O167        O  0.36380352  0.88106364  0.60861756    -0.74400
O168        O  0.37135034  0.84313377  0.63886345    -0.77900
O169        O  0.41621220  0.79581476  0.53422850    -0.78600
C170        C  0.36098989  0.86527738  0.63659626     0.96700
O171        O  0.34744506  0.78184362  0.59532378    -0.76500
O172        O  0.40737999  0.91465498  0.54432745    -0.81700
C173        C  0.36703439  0.83634066  0.48413958     0.99300
C174        C  0.43844524  0.92479543  0.53080322     1.05200
O175        O  0.39581716  0.83540553  0.48851955    -0.77300
C176        C  0.32092372  0.78135261  0.58110700     1.03500
Fe177      Fe  0.41273412  0.58673556  0.60393359     1.65800
Fe178      Fe  0.48283249  0.62303281  0.54993128     1.73200
Fe179      Fe  0.40057877  0.55176339  0.52537269     1.54400
O180        O  0.37777422  0.51144406  0.56435624    -0.81100
O181        O  0.47279445  0.63161420  0.50136457    -0.79400
O182        O  0.40676282  0.53763779  0.61345491    -0.83600
O183        O  0.36008419  0.56007874  0.58866011    -0.78400
O184        O  0.43832751  0.53745530  0.51511613    -0.80200
O185        O  0.47172044  0.66364755  0.56493247    -0.83000
C186        C  0.34324049  0.55663221  0.56135375     0.97800
C187        C  0.38316307  0.50997292  0.59671346     1.05200
O188        O  0.43276966  0.58698990  0.55952075    -1.11900
O189        O  0.50473440  0.62412500  0.59766476    -0.74400
O190        O  0.45986604  0.61420024  0.63135158    -0.77900
O191        O  0.35935884  0.56247324  0.53283971    -0.78600
C192        C  0.49295035  0.62658451  0.62668652     0.96700
O193        O  0.41785842  0.63439975  0.59092338    -0.76500
O194        O  0.49272591  0.58210634  0.53282006    -0.81700
C195        C  0.44840778  0.61837986  0.47888999     0.99300
C196        C  0.47197772  0.55058556  0.51946116     1.05200
O197        O  0.41885741  0.58865418  0.48365380    -0.77300
C198        C  0.44299193  0.66218934  0.57630795     1.03500
Fe199      Fe  0.57314719  0.40269514  0.40436360     1.65800
Fe200      Fe  0.50088791  0.37107668  0.45602434     1.73200
Fe201      Fe  0.58422918  0.43898978  0.48283416     1.54400
O202        O  0.62202515  0.42302250  0.47915612    -0.81100
O203        O  0.49437053  0.41484154  0.47107170    -0.79400
O204        O  0.62437559  0.42422517  0.42276794    -0.83600
O205        O  0.58446356  0.45349420  0.39436118    -0.78400
O206        O  0.56108267  0.40368839  0.52531531    -0.80200
O207        O  0.48182961  0.37086810  0.40663631    -0.83000
C208        C  0.60802434  0.48057037  0.41160403     0.97800
C209        C  0.63798271  0.42446808  0.45132361     1.05200
O210        O  0.55212413  0.40420780  0.44797020    -1.11900
O211        O  0.50833900  0.32766992  0.44314385    -0.74400
O212        O  0.56199695  0.35220472  0.41597740    -0.77900
O213        O  0.61213742  0.47863510  0.44409439    -0.78600
C214        C  0.53514271  0.32611805  0.43080691     0.96700
O215        O  0.52776052  0.38033933  0.37470602    -0.76500
O216        O  0.50783501  0.36179602  0.50586204    -0.81700
C217        C  0.51624375  0.44633904  0.48400103     0.99300
C218        C  0.53073049  0.37475297  0.52980417     1.05200
O219        O  0.54943403  0.45772377  0.48931529    -0.77300
C220        C  0.49480370  0.36930027  0.37787067     1.03500
Fe221      Fe  0.16661472  0.56297052  0.61060601     1.65800
Fe222      Fe  0.11975853  0.49612443  0.55258608     1.73200
Fe223      Fe  0.14011717  0.58067592  0.53564850     1.54400
O224        O  0.12116145  0.60123129  0.57423962    -0.81100
O225        O  0.12657260  0.50647381  0.50051534    -0.79400
O226        O  0.14180471  0.59116554  0.62300251    -0.83600
O227        O  0.21002365  0.60955754  0.59241690    -0.78400
O228        O  0.08786724  0.54299164  0.52150869    -0.80200
O229        O  0.16951635  0.50056882  0.55344907    -0.83000
C230        C  0.21292415  0.63139241  0.56965208     0.97800
C231        C  0.12709038  0.60542151  0.60665911     1.05200
O232        O  0.14199388  0.54693538  0.56682153    -1.11900
O233        O  0.11135715  0.47459409  0.60188610    -0.74400
O234        O  0.12706288  0.52016750  0.63716262    -0.77900
O235        O  0.19010395  0.62308225  0.54605237    -0.78600
C236        C  0.11675179  0.48744680  0.63219678     0.96700
O237        O  0.19397869  0.53670804  0.59950108    -0.76500
O238        O  0.06969469  0.49210263  0.55023464    -0.81700
C239        C  0.15092458  0.53339997  0.48458846     0.99300
C240        C  0.06309574  0.51262230  0.53234856     1.05200
O241        O  0.16268612  0.56517599  0.49600059    -0.77300
C242        C  0.19478984  0.51679639  0.57541010     1.03500
Fe243      Fe  0.82409264  0.41895397  0.39664987     1.65800
Fe244      Fe  0.86266561  0.48742678  0.45376488     1.73200
Fe245      Fe  0.84492592  0.40301020  0.47363017     1.54400
O246        O  0.79169112  0.36319846  0.46589875    -0.81100
O247        O  0.91283323  0.49423930  0.46750131    -0.79400
O248        O  0.79411838  0.36613325  0.41006220    -0.83600
O249        O  0.86494433  0.41001357  0.38512543    -0.78400
O250        O  0.82739490  0.42066449  0.51643477    -0.80200
O251        O  0.88371299  0.51039626  0.40623540    -0.83000
C252        C  0.86825740  0.38630529  0.40088831     0.97800
C253        C  0.78081241  0.34823940  0.43682856     1.05200
O254        O  0.84466523  0.43707907  0.44152912    -1.11900
O255        O  0.81145149  0.47923753  0.44148206    -0.74400
O256        O  0.78360309  0.42712067  0.41138405    -0.77900
O257        O  0.86105829  0.38042665  0.43311941    -0.78600
C258        C  0.78290983  0.45216684  0.42837876     0.96700
O259        O  0.84820271  0.46662371  0.37076074    -0.76500
O260        O  0.84517486  0.47700650  0.50342803    -0.81700
C261        C  0.92106214  0.47215109  0.48004087     0.99300
C262        C  0.83092576  0.45105381  0.52391322     1.05200
O263        O  0.89792214  0.43910381  0.48470133    -0.77300
C264        C  0.87027712  0.49946035  0.37664914     1.03500
Fe265      Fe  0.50086183  0.26194850  0.77866516     1.65800
Fe266      Fe  0.45751952  0.28985529  0.72733420     1.73200
Fe267      Fe  0.47220026  0.22214324  0.70188653     1.54400
O268        O  0.52507373  0.23542185  0.70479936    -0.81100
O269        O  0.40707520  0.24650063  0.71162248    -0.79400
O270        O  0.53193346  0.24240376  0.76056066    -0.83600
O271        O  0.46229007  0.21055818  0.79182812    -0.78400
O272        O  0.48761269  0.25804004  0.66012354    -0.80200
O273        O  0.43742529  0.28777226  0.77659539    -0.83000
C274        C  0.45440325  0.18244181  0.77408294     0.97800
C275        C  0.54067000  0.23528785  0.73199465     1.05200
O276        O  0.47610575  0.25769530  0.73587147    -1.11900
O277        O  0.50769740  0.33480786  0.74081458    -0.74400
O278        O  0.53906402  0.31213264  0.76409798    -0.77900
O279        O  0.45785786  0.18318424  0.74117393    -0.78600
C280        C  0.53714668  0.33795483  0.75134491     0.96700
O281        O  0.47735174  0.28373267  0.80784551    -0.76500
O282        O  0.47525279  0.29961480  0.67744241    -0.81700
C283        C  0.39747638  0.21556798  0.69842264     0.99300
C284        C  0.48680924  0.28667243  0.65504502     1.05200
O285        O  0.41895218  0.20416770  0.69442097    -0.77300
C286        C  0.45361486  0.29197610  0.80483327     1.03500
Fe287      Fe  0.15209873  0.06791778  0.56903428     1.65800
Fe288      Fe  0.19342597  0.03864839  0.62073240     1.73200
Fe289      Fe  0.17563928  0.10374154  0.64744782     1.54400
O290        O  0.18973460  0.14388684  0.60893917    -0.81100
O291        O  0.17442860  0.02740346  0.66985535    -0.79400
O292        O  0.19188027  0.11941609  0.55859392    -0.83600
O293        O  0.12153435  0.08804482  0.58669495    -0.78400
O294        O  0.22925804  0.12352801  0.65615460    -0.80200
O295        O  0.14378591  0.99412955  0.60563757    -0.83000
C296        C  0.10807374  0.08896218  0.61508505     0.97800
C297        C  0.19633123  0.14630931  0.57640849     1.05200
O298        O  0.17456996  0.07028907  0.61259626    -1.11900
O299        O  0.21503989  0.04187724  0.57183956    -0.74400
O300        O  0.17595082  0.04665116  0.54008906    -0.77900
O301        O  0.12155841  0.08646079  0.64274873    -0.78600
C302        C  0.19950106  0.03826448  0.54331008     0.96700
O303        O  0.11280630  0.01691494  0.58108812    -0.76500
O304        O  0.24272534  0.08235197  0.63820352    -0.81700
C305        C  0.16252758  0.03917814  0.69303075     0.99300
C306        C  0.25137587  0.11282273  0.65209144     1.05200
O307        O  0.16081084  0.06739743  0.68878747    -0.77300
C308        C  0.11473853  0.99106134  0.59392221     1.03500
Fe309      Fe  0.73085985  0.24388329  0.76541529     1.65800
Fe310      Fe  0.70065459  0.17082936  0.71449312     1.73200
Fe311      Fe  0.76955513  0.25336128  0.68901000     1.54400
O312        O  0.75518489  0.29232770  0.69127783    -0.81100
O313        O  0.74368376  0.16338905  0.70125693    -0.79400
O314        O  0.75496967  0.29525676  0.74753847    -0.83600
O315        O  0.78052225  0.25384654  0.77891816    -0.78400
O316        O  0.73486583  0.23075964  0.64568789    -0.80200
O317        O  0.70059303  0.15315148  0.76402835    -0.83000
C318        C  0.80878648  0.27540188  0.76227994     0.97800
C319        C  0.75639752  0.30878488  0.71878548     1.05200
O320        O  0.73378803  0.22207025  0.72274814    -1.11900
O321        O  0.65731434  0.17824117  0.72588764    -0.74400
O322        O  0.68181066  0.23387129  0.74985302    -0.77900
O323        O  0.80813786  0.27952369  0.72959672    -0.78600
C324        C  0.65574990  0.20575036  0.73597208     0.96700
O325        O  0.70534586  0.19844988  0.79451193    -0.76500
O326        O  0.69249028  0.17787007  0.66446094    -0.81700
C327        C  0.77495016  0.18469258  0.68858148     0.99300
C328        C  0.70581031  0.20052094  0.64073239     1.05200
O329        O  0.78697001  0.21775055  0.68290397    -0.77300
C330        C  0.69604345  0.16582611  0.79180772     1.03500
Fe331      Fe  0.92074598  0.08652352  0.57298099     1.65800
Fe332      Fe  0.95357521  0.15837462  0.62651806     1.73200
Fe333      Fe  0.88439153  0.07484002  0.65095805     1.54400
O334        O  0.84426539  0.04968453  0.61184195    -0.81100
O335        O  0.96066012  0.15057098  0.67698919    -0.79400
O336        O  0.87012061  0.07576349  0.56215659    -0.83600
O337        O  0.89879959  0.03468550  0.58928554    -0.78400
O338        O  0.86867411  0.11180731  0.65976475    -0.80200
O339        O  0.99631259  0.15043620  0.61511650    -0.83000
C340        C  0.89546921  0.01899529  0.61721498     0.97800
C341        C  0.84260695  0.05365574  0.57935393     1.05200
O342        O  0.91959601  0.10710248  0.61702786    -1.11900
O343        O  0.95645522  0.17864001  0.57728611    -0.74400
O344        O  0.94374648  0.13205865  0.54423307    -0.77900
O345        O  0.89643992  0.03411869  0.64563737    -0.78600
C346        C  0.95680970  0.16535458  0.54816928     0.96700
O347        O  0.97087777  0.09749914  0.58589923    -0.76500
O348        O  0.91072891  0.16585969  0.63939643    -0.81700
C349        C  0.94834791  0.12620955  0.69928815     0.99300
C350        C  0.88016685  0.14472278  0.65341031     1.05200
O351        O  0.92055113  0.09535496  0.69317120    -0.77300
C352        C  0.99739845  0.12385978  0.60156481     1.03500
Fe353      Fe  0.75354449  0.49581589  0.77180904     1.65800
Fe354      Fe  0.82301453  0.53459816  0.71764570     1.73200
Fe355      Fe  0.73892769  0.51572905  0.69416155     1.54400
O356        O  0.69918130  0.46202819  0.70128320    -0.81100
O357        O  0.82963740  0.58482332  0.70310848    -0.79400
O358        O  0.70100136  0.46719719  0.75713521    -0.83600
O359        O  0.74594951  0.53757871  0.78292467    -0.78400
O360        O  0.75807401  0.49846139  0.65179039    -0.80200
O361        O  0.84466721  0.55609967  0.76598443    -0.83000
C362        C  0.72151396  0.53962093  0.76683734     0.97800
C363        C  0.68409856  0.45162517  0.73017640     1.05200
O364        O  0.77251409  0.51622485  0.72763079    -1.11900
O365        O  0.81456122  0.48327675  0.73041703    -0.74400
O366        O  0.76074501  0.45474667  0.75703662    -0.77900
O367        O  0.71574662  0.53192563  0.73440986    -0.78600
C368        C  0.78673134  0.45445334  0.74173195     0.96700
O369        O  0.80059417  0.51795486  0.79883893    -0.76500
O370        O  0.81333856  0.51587107  0.66836678    -0.81700
C371        C  0.80740941  0.59258292  0.68961548     0.99300
C372        C  0.78870829  0.50171132  0.64611751     1.05200
O373        O  0.77465321  0.56881293  0.68375902    -0.77300
C374        C  0.83336735  0.54063415  0.79446051     1.03500
Fe375      Fe  0.89755146  0.83208020  0.55835719     1.65800
Fe376      Fe  0.82771381  0.79274157  0.61298256     1.73200
Fe377      Fe  0.91214166  0.81438033  0.63712963     1.54400
O378        O  0.93718269  0.79910289  0.59851613    -0.81100
O379        O  0.83594143  0.81104777  0.66266031    -0.79400
O380        O  0.90865671  0.79220388  0.54860136    -0.83600
O381        O  0.95000139  0.86380500  0.57353612    -0.78400
O382        O  0.87799030  0.76108456  0.64808276    -0.80200
O383        O  0.83499887  0.84357628  0.60032672    -0.83000
C384        C  0.96613743  0.87853103  0.60109451     0.97800
C385        C  0.93279494  0.79101520  0.56620848     1.05200
O386        O  0.87840585  0.81198244  0.60285484    -1.11900
O387        O  0.80625296  0.77104368  0.56461923    -0.74400
O388        O  0.85054299  0.80686189  0.53062613    -0.77900
O389        O  0.94951047  0.86816192  0.62923570    -0.78600
C390        C  0.81758383  0.78505792  0.53555204     0.96700
O391        O  0.88763707  0.87170831  0.57193651    -0.76500
O392        O  0.82288707  0.74331744  0.62759576    -0.81700
C393        C  0.86085824  0.82646817  0.68453993     0.99300
C394        C  0.84558959  0.73657560  0.64178387     1.05200
O395        O  0.89197556  0.83119209  0.67860996    -0.77300
C396        C  0.86233950  0.87230447  0.58829396     1.03500
Fe397      Fe  0.48459960  0.75596296  0.73141796     1.65800
Fe398      Fe  0.52739086  0.82403491  0.78978852     1.73200
Fe399      Fe  0.51179326  0.74095936  0.80693291     1.54400
O400        O  0.46080882  0.69813256  0.80016915    -0.81100
O401        O  0.57941101  0.83294069  0.79529247    -0.79400
O402        O  0.45085697  0.70426929  0.74638632    -0.83600
O403        O  0.52049195  0.74079629  0.71690326    -0.78400
O404        O  0.49105122  0.75654924  0.84896002    -0.80200
O405        O  0.53798033  0.84725613  0.74132287    -0.83000
C406        C  0.52994528  0.72174434  0.73334414     0.97800
C407        C  0.44445779  0.68491559  0.77225126     1.05200
O408        O  0.50883128  0.77387776  0.77542925    -1.11900
O409        O  0.47459252  0.81264713  0.78775320    -0.74400
O410        O  0.44769528  0.76968591  0.74693429    -0.77900
O411        O  0.52905611  0.71996254  0.76634306    -0.78600
C412        C  0.44653280  0.78916210  0.77124024     0.96700
O413        O  0.51246618  0.80219648  0.70416469    -0.76500
O414        O  0.52043635  0.81513858  0.84133941    -0.81700
C415        C  0.58754030  0.81233785  0.81121679     0.99300
C416        C  0.50003027  0.78815913  0.85914892     1.05200
O417        O  0.56435153  0.77971994  0.81784563    -0.77300
C418        C  0.52874733  0.83536957  0.71091250     1.03500
Fe419      Fe  0.83775875  0.90942619  0.93595103     1.65800
Fe420      Fe  0.78963661  0.83874801  0.88231110     1.73200
Fe421      Fe  0.81079100  0.92447570  0.86138171     1.54400
O422        O  0.80098692  0.95099210  0.90334704    -0.81100
O423        O  0.80694061  0.84772532  0.83228727    -0.79400
O424        O  0.80187829  0.92396432  0.95158940    -0.83600
O425        O  0.87054990  0.96065591  0.91933300    -0.78400
O426        O  0.75634695  0.89101220  0.85443080    -0.80200
O427        O  0.83759314  0.84093892  0.89370108    -0.83000
C428        C  0.88198364  0.97606857  0.89101955     0.97800
C429        C  0.79721905  0.94692793  0.93614434     1.05200
O430        O  0.81188924  0.89030967  0.89309668    -1.11900
O431        O  0.77008531  0.81957147  0.93180762    -0.74400
O432        O  0.81241614  0.86330453  0.96356419    -0.77900
O433        O  0.86537999  0.96150739  0.86349227    -0.78600
C434        C  0.78736523  0.83111319  0.95995759     0.96700
O435        O  0.87334018  0.89502988  0.91928335    -0.76500
O436        O  0.74107061  0.83481218  0.86825859    -0.81700
C437        C  0.81926755  0.87273369  0.81060626     0.99300
C438        C  0.73334081  0.85760483  0.85687027     1.05200
O439        O  0.82222401  0.90303794  0.81730018    -0.77300
C440        C  0.86803593  0.86593677  0.90514525     1.03500
Fe441      Fe  0.25999155  0.50064372  0.73018938     1.65800
Fe442      Fe  0.28842408  0.45842432  0.78159145     1.73200
Fe443      Fe  0.22377969  0.47704682  0.80826134     1.54400
O444        O  0.23903018  0.53050927  0.80390396    -0.81100
O445        O  0.24461271  0.40932214  0.79758202    -0.79400
O446        O  0.23979787  0.53143697  0.74776692    -0.83600
O447        O  0.20816685  0.46105604  0.71905885    -0.78400
O448        O  0.26072129  0.49284056  0.84953586    -0.80200
O449        O  0.28563792  0.43725005  0.73213056    -0.83000
C450        C  0.18116328  0.45607566  0.73675592     0.97800
C451        C  0.23654151  0.54369437  0.77615746     1.05200
O452        O  0.25728873  0.47806638  0.77355171    -1.11900
O453        O  0.33320435  0.50757659  0.76785613    -0.74400
O454        O  0.31172235  0.53959487  0.74297841    -0.77900
O455        O  0.18336940  0.46199813  0.76946765    -0.78600
C456        C  0.33705389  0.53686877  0.75643180     0.96700
O457        O  0.28085646  0.47645287  0.70102854    -0.76500
O458        O  0.29927059  0.47693762  0.83152643    -0.81700
C459        C  0.21525161  0.40167705  0.81273724     0.99300
C460        C  0.28812502  0.48980192  0.85447907     1.05200
O461        O  0.20501181  0.42400771  0.81768370    -0.77300
C462        C  0.28924910  0.45288701  0.70384391     1.03500
Fe463      Fe  0.07269020  0.16417054  0.94646883     1.65800
Fe464      Fe  0.04021601  0.20198568  0.89456354     1.73200
Fe465      Fe  0.10652081  0.18602471  0.86841910     1.54400
O466        O  0.14716520  0.20125053  0.90755503    -0.81100
O467        O  0.02951177  0.18394650  0.84502664    -0.79400
O468        O  0.12323082  0.20605521  0.95694687    -0.83600
O469        O  0.09567742  0.13551106  0.92912802    -0.78400
O470        O  0.12488267  0.23917269  0.86004469    -0.80200
O471        O  0.99707653  0.15057288  0.90814717    -0.83000
C472        C  0.09448593  0.12004992  0.90109806     0.97800
C473        C  0.14971685  0.20862363  0.94009236     1.05200
O474        O  0.07338139  0.18509924  0.90293824    -1.11900
O475        O  0.04216342  0.22345957  0.94316272    -0.74400
O476        O  0.04872272  0.18615149  0.97536962    -0.77900
O477        O  0.09027228  0.13210086  0.87331863    -0.78600
C478        C  0.03873698  0.20849548  0.97163963     0.96700
O479        O  0.02327497  0.12304052  0.93259876    -0.76500
O480        O  0.08335770  0.25208727  0.87873497    -0.81700
C481        C  0.04121338  0.17192291  0.82204171     0.99300
C482        C  0.11371992  0.26084361  0.86485219     1.05200
O483        O  0.06939943  0.17005609  0.82669399    -0.77300
C484        C  0.99644152  0.12212783  0.91827875     1.03500
Fe485      Fe  0.24398644  0.73588041  0.74549787     1.65800
Fe486      Fe  0.16796618  0.70119281  0.79116000     1.73200
Fe487      Fe  0.24724050  0.77381523  0.82083601     1.54400
O488        O  0.28714463  0.76186163  0.82306619    -0.81100
O489        O  0.15635173  0.74123942  0.80795335    -0.79400
O490        O  0.29490481  0.76138285  0.76726906    -0.83600
O491        O  0.25137531  0.78393892  0.73113212    -0.78400
O492        O  0.22374270  0.73759525  0.86239983    -0.80200
O493        O  0.15307836  0.70498590  0.74145156    -0.83000
C494        C  0.27182407  0.81277795  0.74782974     0.97800
C495        C  0.30570306  0.76304912  0.79770306     1.05200
O496        O  0.21900841  0.73719139  0.78605091    -1.11900
O497        O  0.17788575  0.65948740  0.77614633    -0.74400
O498        O  0.23627723  0.68870295  0.76172568    -0.77900
O499        O  0.27490978  0.81309622  0.78091563    -0.78600
C500        C  0.20722374  0.66002280  0.76904439     0.96700
O501        O  0.19935025  0.70857048  0.71404883    -0.76500
O502        O  0.17463783  0.69021155  0.84027203    -0.81700
C503        C  0.17604691  0.77358550  0.81980633     0.99300
C504        C  0.19642899  0.70564277  0.86482794     1.05200
O505        O  0.20979876  0.78871753  0.82387435    -0.77300
C506        C  0.16673768  0.69998980  0.71466666     1.03500
Fe507      Fe  0.08001854  0.92139343  0.93966823     1.65800
Fe508      Fe  0.15049026  0.95315266  0.88621123     1.73200
Fe509      Fe  0.06705993  0.88331531  0.86215294     1.54400
O510        O  0.04345141  0.84447529  0.90175886    -0.81100
O511        O  0.14131521  0.95995813  0.83626551    -0.79400
O512        O  0.07118368  0.87169297  0.95110431    -0.83600
O513        O  0.02790790  0.89674996  0.92376469    -0.78400
O514        O  0.10317934  0.86716200  0.85285967    -0.80200
O515        O  0.14188318  0.99605723  0.89856927    -0.83000
C516        C  0.01106677  0.89148728  0.89617002     0.97800
C517        C  0.04811031  0.84378262  0.93430221     1.05200
O518        O  0.09984286  0.91915048  0.89582192    -1.11900
O519        O  0.17152755  0.95559562  0.93523103    -0.74400
O520        O  0.12654255  0.94708454  0.96808520    -0.77900
O521        O  0.02710320  0.89558498  0.86791877    -0.78600
C522        C  0.15947619  0.95830162  0.96413652     0.96700
O523        O  0.08817899  0.96994559  0.92528342    -0.76500
O524        O  0.15796786  0.90989291  0.87200499    -0.81700
C525        C  0.11648034  0.94684099  0.81406811     0.99300
C526        C  0.13628896  0.87879305  0.85831993     1.05200
O527        O  0.08613743  0.91852397  0.81984981    -0.77300
C528        C  0.11454680  0.99682883  0.91075096     1.03500
Fe529      Fe  0.58997026  0.41853647  0.90308414     1.65800
Fe530      Fe  0.62381568  0.49345111  0.95305790     1.73200
Fe531      Fe  0.55518745  0.41200219  0.98101594     1.54400
O532        O  0.51427481  0.38509616  0.94252925    -0.81100
O533        O  0.63435620  0.48872289  0.00369100    -0.79400
O534        O  0.53968553  0.40848148  0.89178381    -0.83600
O535        O  0.56686536  0.36744243  0.92195671    -0.78400
O536        O  0.53941235  0.44923610  0.98806078    -0.80200
O537        O  0.66564458  0.48414719  0.94077639    -0.83000
C538        C  0.56581478  0.35445262  0.95094685     0.97800
C539        C  0.51222378  0.38764495  0.90976429     1.05200
O540        O  0.58955379  0.44192994  0.94585466    -1.11900
O541        O  0.62294438  0.50992048  0.90308027    -0.74400
O542        O  0.61439063  0.46305135  0.87262608    -0.77900
O543        O  0.56762330  0.37153056  0.97823359    -0.78600
C544        C  0.62548152  0.49614067  0.87506228     0.96700
O545        O  0.63949551  0.42848650  0.91649628    -0.76500
O546        O  0.58193855  0.50257315  0.96705502    -0.81700
C547        C  0.62242064  0.46486280  0.02649197     0.99300
C548        C  0.55135394  0.48216686  0.98140628     1.05200
O549        O  0.59304923  0.43477763  0.02185928    -0.77300
C550        C  0.66609854  0.45615205  0.93031851     1.03500
Fe551      Fe  0.39753546  0.57581782  0.10518562     1.65800
Fe552      Fe  0.37189949  0.50377738  0.05301923     1.73200
Fe553      Fe  0.43863712  0.58875904  0.02951518     1.54400
O554        O  0.42243093  0.62607466  0.03214980    -0.81100
O555        O  0.41692255  0.49948766  0.03906909    -0.79400
O556        O  0.41799295  0.62675966  0.08801865    -0.83600
O557        O  0.44850725  0.59008035  0.11959560    -0.78400
O558        O  0.40416832  0.56623080  0.98642209    -0.80200
O559        O  0.37190216  0.48585075  0.10295039    -0.83000
C560        C  0.47665881  0.61263799  0.10340086     0.97800
C561        C  0.42239458  0.64182437  0.05963381     1.05200
O562        O  0.40291323  0.55553037  0.06242747    -1.11900
O563        O  0.32611208  0.50715046  0.06451767    -0.74400
O564        O  0.34684487  0.56160314  0.08981325    -0.77900
O565        O  0.47662427  0.61596001  0.07052294    -0.78600
C566        C  0.32175335  0.53254379  0.07606630     0.96700
O567        O  0.37546340  0.53059247  0.13367111    -0.76500
O568        O  0.36356217  0.51092124  0.00263460    -0.81700
C569        C  0.44766690  0.52200463  0.02598117     0.99300
C570        C  0.37633556  0.53536752  0.98037237     1.05200
O571        O  0.45843069  0.55505693  0.02177586    -0.77300
C572        C  0.36729856  0.49837344  0.13096683     1.03500
Fe573      Fe  0.56796762  0.16581858  0.89710162     1.65800
Fe574      Fe  0.49984010  0.12860831  0.95329934     1.73200
Fe575      Fe  0.58358852  0.14346564  0.97339567     1.54400
O576        O  0.60542475  0.12764416  0.93188844    -0.81100
O577        O  0.51206046  0.14758865  0.00244980    -0.79400
O578        O  0.57529303  0.12407124  0.88405231    -0.83600
O579        O  0.62071341  0.19415127  0.91087676    -0.78400
O580        O  0.54714608  0.09036972  0.98318201    -0.80200
O581        O  0.50896012  0.18014586  0.94095170    -0.83000
C582        C  0.63823436  0.20848651  0.93786780     0.97800
C583        C  0.59954787  0.12110043  0.89938621     1.05200
O584        O  0.54969714  0.14490704  0.94144936    -1.11900
O585        O  0.47621899  0.10715169  0.90534194    -0.74400
O586        O  0.52025388  0.14351249  0.87133493    -0.77900
O587        O  0.62363111  0.19709059  0.96680991    -0.78600
C588        C  0.48741404  0.12140391  0.87629548     0.96700
O589        O  0.56176273  0.20744379  0.91292810    -0.76500
O590        O  0.49166529  0.07801023  0.96816181    -0.81700
C591        C  0.53688807  0.15878277  0.02446738     0.99300
C592        C  0.51338581  0.06883495  0.98014040     1.05200
O593        O  0.56634171  0.15994223  0.01766371    -0.77300
C594        C  0.53668231  0.20858686  0.92913863     1.03500
Fe595      Fe  0.41787386  0.82437508  0.10534953     1.65800
Fe596      Fe  0.48947855  0.86799113  0.05347480     1.73200
Fe597      Fe  0.40541184  0.85028280  0.02945270     1.54400
O598        O  0.36654178  0.79585638  0.03232027    -0.81100
O599        O  0.49622197  0.91811417  0.03987512    -0.79400
O600        O  0.36598097  0.79404179  0.08848028    -0.83600
O601        O  0.40702816  0.86323372  0.11958315    -0.78400
O602        O  0.42620174  0.83650905  0.98597888    -0.80200
O603        O  0.50913980  0.88747169  0.10311333    -0.83000
C604        C  0.38434343  0.86794242  0.10341796     0.97800
C605        C  0.35118590  0.78084762  0.06000581     1.05200
O606        O  0.43828116  0.84855960  0.06264574    -1.11900
O607        O  0.48331556  0.81774374  0.06455315    -0.74400
O608        O  0.42852139  0.78611512  0.08900359    -0.77900
O609        O  0.38001371  0.86293247  0.07056411    -0.78600
C610        C  0.45628511  0.78822513  0.07516059     0.96700
O611        O  0.46390870  0.84729232  0.13393208    -0.76500
O612        O  0.48036380  0.85056255  0.00358009    -0.81700
C613        C  0.47446600  0.92667119  0.02698574     0.99300
C614        C  0.45634740  0.83860696  0.98060082     1.05200
O615        O  0.44105929  0.90434627  0.02225603    -0.77300
C616        C  0.49660830  0.87106090  0.13112223     1.03500
Fe617      Fe  0.16254768  0.58666535  0.11106726     1.65800
Fe618      Fe  0.12623862  0.61849602  0.05625109     1.73200
Fe619      Fe  0.14013369  0.54981971  0.03307497     1.54400
O620        O  0.19316096  0.56368473  0.04021115    -0.81100
O621        O  0.07645953  0.57637296  0.03839618    -0.79400
O622        O  0.19202247  0.56380425  0.09614391    -0.83600
O623        O  0.12074124  0.53605429  0.12172782    -0.78400
O624        O  0.15748391  0.58552781  0.99081954    -0.80200
O625        O  0.10312214  0.61727171  0.10338284    -0.83000
C626        C  0.11701357  0.50886827  0.10488985     0.97800
C627        C  0.20471650  0.55960908  0.06850879     1.05200
O628        O  0.14193713  0.58461522  0.06660982    -1.11900
O629        O  0.17703287  0.66169689  0.07161281    -0.74400
O630        O  0.20393980  0.63571948  0.09726292    -0.77900
O631        O  0.12353801  0.51039166  0.07241991    -0.78600
C632        C  0.20527300  0.66241365  0.08255906     0.96700
O633        O  0.13930678  0.61082343  0.13771611    -0.76500
O634        O  0.14598140  0.62762755  0.00783423    -0.81700
C635        C  0.06675967  0.54540613  0.02517364     0.99300
C636        C  0.15684109  0.61419683  0.98546968     1.05200
O637        O  0.08744322  0.53280348  0.02252236    -0.77300
C638        C  0.11703996  0.62072859  0.13261376     1.03500
Fe639      Fe  0.82159620  0.39916860  0.89130665     1.65800
Fe640      Fe  0.86368708  0.37176609  0.94502190     1.73200
Fe641      Fe  0.84798416  0.43930353  0.96847244     1.54400
O642        O  0.86280477  0.47814622  0.92904597    -0.81100
O643        O  0.84451502  0.36222380  0.99438845    -0.79400
O644        O  0.85995911  0.45092472  0.87876667    -0.83600
O645        O  0.78937246  0.41798533  0.90828893    -0.78400
O646        O  0.90102799  0.45774468  0.97728980    -0.80200
O647        O  0.81431636  0.32665303  0.93072379    -0.83000
C648        C  0.78018758  0.42532463  0.93654993     0.97800
C649        C  0.86702159  0.47896071  0.89625803     1.05200
O650        O  0.84513194  0.40367497  0.93501106    -1.11900
O651        O  0.88523376  0.37348253  0.89658798    -0.74400
O652        O  0.84697041  0.37831678  0.86335476    -0.77900
O653        O  0.79522609  0.42534405  0.96414873    -0.78600
C654        C  0.87029174  0.36966432  0.86769267     0.96700
O655        O  0.78328906  0.34839689  0.90491550    -0.76500
O656        O  0.91336926  0.41529473  0.96160075    -0.81700
C657        C  0.83267430  0.37535266  0.01627354     0.99300
C658        C  0.92250529  0.44624821  0.97437858     1.05200
O659        O  0.83197918  0.40392190  0.01063212    -0.77300
C660        C  0.78516543  0.32297229  0.91876081     1.03500
Fe661      Fe  0.91789184  0.83573729  0.06271142     1.65800
Fe662      Fe  0.95076953  0.79811927  0.11463328     1.73200
Fe663      Fe  0.88191572  0.80999636  0.13955691     1.54400
O664        O  0.89756643  0.86377332  0.13594657    -0.81100
O665        O  0.90985098  0.74810564  0.13305293    -0.79400
O666        O  0.89285437  0.86223930  0.08002245    -0.83600
O667        O  0.86846525  0.79301032  0.05024399    -0.78400
O668        O  0.91846030  0.82542171  0.18211370    -0.80200
O669        O  0.94597375  0.77498942  0.06640508    -0.83000
C670        C  0.84112670  0.78936215  0.06631092     0.97800
C671        C  0.89423547  0.87696871  0.10851060     1.05200
O672        O  0.91648763  0.81343645  0.10585153    -1.11900
O673        O  0.99249031  0.84904871  0.09910607    -0.74400
O674        O  0.96585586  0.87795794  0.07832935    -0.77900
O675        O  0.84234581  0.79542155  0.09911164    -0.78600
C676        C  0.99229301  0.87776228  0.09197118     0.96700
O677        O  0.94420355  0.81564488  0.03482323    -0.76500
O678        O  0.96320846  0.81903217  0.16324147    -0.81700
C679        C  0.87798181  0.73704833  0.14428272     0.99300
C680        C  0.94926711  0.82842506  0.18645298     1.05200
O681        O  0.86416921  0.75668604  0.14646261    -0.77300
C682        C  0.95173440  0.79142654  0.03840230     1.03500
Fe683      Fe  0.73831956  0.49625528  0.27942800     1.65800
Fe684      Fe  0.70683624  0.53626819  0.22838952     1.73200
Fe685      Fe  0.77501951  0.52317431  0.20200998     1.54400
O686        O  0.81502692  0.53790779  0.24137287    -0.81100
O687        O  0.69674766  0.51948034  0.17810663    -0.79400
O688        O  0.78907486  0.53716755  0.29150791    -0.83600
O689        O  0.75978177  0.46722875  0.26112093    -0.78400
O690        O  0.79190776  0.57629927  0.19510925    -0.80200
O691        O  0.66426629  0.48471192  0.24042419    -0.83000
C692        C  0.76504858  0.45661720  0.23274805     0.97800
C693        C  0.81643725  0.54244846  0.27429381     1.05200
O694        O  0.74025153  0.51931473  0.23644519    -1.11900
O695        O  0.70771475  0.55561644  0.27810624    -0.74400
O696        O  0.71486193  0.51778240  0.30906634    -0.77900
O697        O  0.76242361  0.47020380  0.20518144    -0.78600
C698        C  0.70457066  0.53992798  0.30620776     0.96700
O699        O  0.68886149  0.45561226  0.26538096    -0.76500
O700        O  0.74906628  0.58722330  0.21354627    -0.81700
C701        C  0.70899307  0.50797752  0.15506870     0.99300
C702        C  0.77982069  0.59714634  0.20005290     1.05200
O703        O  0.73796497  0.50740065  0.15993364    -0.77300
C704        C  0.66310381  0.45615416  0.25062968     1.03500
Fe705      Fe  0.91269887  0.07505459  0.07328687     1.65800
Fe706      Fe  0.84046281  0.04362419  0.12480403     1.73200
Fe707      Fe  0.92329135  0.11521474  0.15003911     1.54400
O708        O  0.96580643  0.10643335  0.14650253    -0.81100
O709        O  0.83163635  0.08537546  0.13874511    -0.79400
O710        O  0.96372530  0.09799514  0.09102531    -0.83600
O711        O  0.92342997  0.12519104  0.06035337    -0.78400
O712        O  0.90333578  0.07973872  0.19256872    -0.80200
O713        O  0.82118437  0.04230458  0.07526526    -0.83000
C714        C  0.94438842  0.15387005  0.07735913     0.97800
C715        C  0.98138180  0.10800137  0.11847178     1.05200
O716        O  0.89174070  0.07806564  0.11627240    -1.11900
O717        O  0.84795279  0.00066864  0.11229813    -0.74400
O718        O  0.90260115  0.02588971  0.08761408    -0.77900
O719        O  0.94747175  0.15407095  0.11025800    -0.78600
C720        C  0.87484619  0.99912860  0.10064193     0.96700
O721        O  0.86721924  0.05072476  0.04400863    -0.76500
O722        O  0.84904481  0.03658189  0.17515155    -0.81700
C723        C  0.85229790  0.11666325  0.15202856     0.99300
C724        C  0.87326939  0.05072212  0.19802561     1.05200
O725        O  0.88562712  0.12966302  0.15751124    -0.77300
C726        C  0.83431901  0.03995091  0.04686343     1.03500
Fe727      Fe  0.75129892  0.26072520  0.26780390     1.65800
Fe728      Fe  0.82253267  0.29265605  0.21462150     1.73200
Fe729      Fe  0.73908573  0.22380094  0.18915005     1.54400
O730        O  0.71214382  0.18416924  0.22813355    -0.81100
O731        O  0.81392288  0.30171031  0.16538518    -0.79400
O732        O  0.73911433  0.20942090  0.27814898    -0.83600
O733        O  0.70006851  0.23986892  0.24977335    -0.78400
O734        O  0.77429058  0.20606858  0.18199074    -0.80200
O735        O  0.81566962  0.33565125  0.22820500    -0.83000
C736        C  0.68570155  0.23812350  0.22120297     0.97800
C737        C  0.71607604  0.18216477  0.26065540     1.05200
O738        O  0.77152514  0.25900629  0.22370015    -1.11900
O739        O  0.84258642  0.29255205  0.26305581    -0.74400
O740        O  0.79747177  0.28272231  0.29660918    -0.77900
O741        O  0.70097813  0.23885168  0.19322187    -0.78600
C742        C  0.83037407  0.29382799  0.29227503     0.96700
O743        O  0.76269460  0.31150243  0.25635586    -0.76500
O744        O  0.82943782  0.25000944  0.19913733    -0.81700
C745        C  0.79076534  0.28822986  0.14172297     0.99300
C746        C  0.80769330  0.21846784  0.18676042     1.05200
O747        O  0.76093558  0.25882865  0.14639082    -0.77300
C748        C  0.78933464  0.33739676  0.24108180     1.03500
Fe749      Fe  0.49970405  0.24055340  0.27662856     1.65800
Fe750      Fe  0.46272177  0.17091785  0.22049341     1.73200
Fe751      Fe  0.48022267  0.25476664  0.19812215     1.54400
O752        O  0.46433999  0.27922032  0.23722233    -0.81100
O753        O  0.48373350  0.18091307  0.17225566    -0.79400
O754        O  0.45937053  0.25074786  0.28623361    -0.83600
O755        O  0.53167097  0.29271779  0.26242241    -0.78400
O756        O  0.42713746  0.21876005  0.18651083    -0.80200
O757        O  0.51258253  0.17855543  0.23643842    -0.83000
C758        C  0.54521516  0.30948025  0.23518231     0.97800
C759        C  0.45713332  0.27459195  0.26956494     1.05200
O760        O  0.47993668  0.22146993  0.23155561    -1.11900
O761        O  0.43864064  0.14934744  0.26732411    -0.74400
O762        O  0.47424980  0.19330000  0.30270226    -0.77900
O763        O  0.53331281  0.29407468  0.20639812    -0.78600
C764        C  0.45191270  0.16053394  0.29689288     0.96700
O765        O  0.53994904  0.23180220  0.26415564    -0.76500
O766        O  0.41365796  0.16351886  0.20253054    -0.81700
C767        C  0.49673038  0.20583074  0.15068780     0.99300
C768        C  0.40510094  0.18516868  0.18963799     1.05200
O769        O  0.49800397  0.23557027  0.15635306    -0.77300
C770        C  0.54098747  0.20647126  0.24838741     1.03500
Fe771      Fe  0.15384453  0.09160734  0.07017054     1.65800
Fe772      Fe  0.20335355  0.16143560  0.12499516     1.73200
Fe773      Fe  0.18142000  0.07560898  0.14557385     1.54400
O774        O  0.12777992  0.03498874  0.14051795    -0.81100
O775        O  0.25272913  0.16517734  0.13358577    -0.79400
O776        O  0.11725532  0.04211007  0.08681418    -0.83600
O777        O  0.18625647  0.07180507  0.05514549    -0.78400
O778        O  0.16688119  0.09556801  0.18925837    -0.80200
O779        O  0.21900881  0.18193204  0.07533923    -0.83000
C780        C  0.19545428  0.05255466  0.07167915     0.97800
C781        C  0.10959875  0.02321059  0.11306170     1.05200
O782        O  0.17993279  0.10967435  0.11347512    -1.11900
O783        O  0.15478179  0.15927167  0.11869607    -0.74400
O784        O  0.12072763  0.11030654  0.08532884    -0.77900
O785        O  0.19466922  0.05117636  0.10468434    -0.78600
C786        C  0.12517182  0.13682502  0.10395393     0.96700
O787        O  0.18292187  0.13620060  0.04155059    -0.76500
O788        O  0.19056662  0.15282458  0.17624464    -0.81700
C789        C  0.25964764  0.14320830  0.14821302     0.99300
C790        C  0.17475929  0.12751333  0.19742425     1.05200
O791        O  0.23556589  0.11092370  0.15492325    -0.77300
C792        C  0.20499533  0.16918227  0.04611068     1.03500
C793        C  0.29725600  0.15495051  0.15869266    -0.04700
C794        C  0.30413737  0.14783194  0.19230876    -0.01900
C795        C  0.33885419  0.15546394  0.20168197     0.03100
C796        C  0.36750884  0.17176391  0.17809963    -0.04700
C797        C  0.36089145  0.17974980  0.14475477    -0.01800
C798        C  0.32585240  0.17090052  0.13496205     0.03100
C799        C  0.27590490  0.13444280  0.21799162     0.37800
C800        C  0.39015442  0.19685580  0.12027261     0.37800
C801        C  0.31908972  0.17739712  0.10017415     0.36200
C802        C  0.34545491  0.14802930  0.23618647     0.36200
N803        N  0.31360431  0.18248330  0.07241999    -0.38600
N804        N  0.35084696  0.14206704  0.26363462    -0.38600
N805        N  0.41348775  0.21062946  0.10076903    -0.38100
N806        N  0.25351230  0.12413880  0.23856518    -0.38100
C807        C  0.64951484  0.23380833  0.22275752    -0.04700
C808        C  0.62032069  0.20695840  0.20343358    -0.01900
C809        C  0.58454521  0.19613402  0.21279188     0.03100
C810        C  0.57773738  0.21227978  0.24170865    -0.04700
C811        C  0.60770523  0.23964688  0.26056887    -0.01800
C812        C  0.64292492  0.25179610  0.24958958     0.03100
C813        C  0.62698656  0.19075323  0.17366055     0.37800
C814        C  0.60322926  0.25553323  0.29195505     0.37800
C815        C  0.67270966  0.28387289  0.26558108     0.36200
C816        C  0.55520960  0.16840332  0.19229240     0.36200
N817        N  0.69607156  0.30966901  0.27820486    -0.38600
N818        N  0.53207676  0.14610078  0.17583483    -0.38600
N819        N  0.60036880  0.26876769  0.31684431    -0.38100
N820        N  0.63215513  0.17792412  0.14972064    -0.38100
C821        C  0.02111305  0.12253057  0.11593977    -0.04700
C822        C  0.04290407  0.12948499  0.14538950    -0.01900
C823        C  0.07928581  0.13947960  0.14155223     0.03100
C824        C  0.09344967  0.14057960  0.10865600    -0.04700
C825        C  0.07406980  0.13960082  0.07966249    -0.01800
C826        C  0.03829751  0.13114895  0.08305177     0.03100
C827        C  0.02854490  0.12654688  0.17970534     0.37800
C828        C  0.09173786  0.14861237  0.04641345     0.37800
C829        C  0.02001964  0.13201903  0.05232201     0.36200
C830        C  0.10237354  0.15032275  0.17135133     0.36200
N831        N  0.00528334  0.13263873  0.02791435    -0.38600
N832        N  0.12044620  0.16059962  0.19550377    -0.38600
N833        N  0.10620829  0.15632918  0.02016981    -0.38100
N834        N  0.01753655  0.12455478  0.20721706    -0.38100
C835        C  0.83813388  0.14038049  0.16166672    -0.04700
C836        C  0.82039760  0.14944082  0.13717060    -0.01900
C837        C  0.81199815  0.17619363  0.14491905     0.03100
C838        C  0.82079271  0.19381669  0.17744545    -0.04700
C839        C  0.83798721  0.18434324  0.20215551    -0.01800
C840        C  0.84659481  0.15775821  0.19433477     0.03100
C841        C  0.81177960  0.13207923  0.10356995     0.37800
C842        C  0.84549578  0.20086699  0.23613761     0.37800
C843        C  0.86331188  0.14752896  0.22040806     0.36200
C844        C  0.79504746  0.18626399  0.11895270     0.36200
N845        N  0.87658382  0.13932710  0.24119042    -0.38600
N846        N  0.78155938  0.19434594  0.09828844    -0.38600
N847        N  0.85136197  0.21402457  0.26324050    -0.38100
N848        N  0.80480348  0.11810416  0.07682147    -0.38100
C849        C  0.78843177  0.37070682  0.23727055    -0.04700
C850        C  0.77497586  0.37661921  0.20680694    -0.01900
C851        C  0.77034822  0.40637797  0.20408083     0.03100
C852        C  0.77498213  0.42813176  0.23335863    -0.04700
C853        C  0.78821987  0.42150650  0.26430448    -0.01800
C854        C  0.79609996  0.39385921  0.26556337     0.03100
C855        C  0.76224938  0.35001056  0.17939046     0.37800
C856        C  0.79279036  0.44191260  0.29567574     0.37800
C857        C  0.81094371  0.38823862  0.29651573     0.36200
C858        C  0.75970397  0.41340471  0.17126002     0.36200
N859        N  0.82285046  0.38366035  0.32104888    -0.38600
N860        N  0.75175473  0.41908681  0.14483496    -0.38600
N861        N  0.79544103  0.45776209  0.32074310    -0.38100
N862        N  0.75060712  0.32840887  0.15779260    -0.38100
C863        C  0.57464086  0.34815069  0.23817097    -0.04700
C864        C  0.59782124  0.36598060  0.21017238    -0.01900
C865        C  0.62698376  0.40142462  0.21443644     0.03100
C866        C  0.63058337  0.42101661  0.24487939    -0.04700
C867        C  0.60718369  0.40428612  0.27237308    -0.01800
C868        C  0.58024119  0.36777099  0.26971564     0.03100
C869        C  0.59304712  0.34802334  0.17719421     0.37800
C870        C  0.61267669  0.42416496  0.30442237     0.37800
C871        C  0.55978297  0.35095924  0.30047239     0.36200
C872        C  0.65513410  0.41628961  0.18868570     0.36200
N873        N  0.54439273  0.33799948  0.32550711    -0.38600
N874        N  0.67753624  0.42697852  0.16814169    -0.38600
N875        N  0.61732967  0.43994128  0.32997929    -0.38100
N876        N  0.58929152  0.33423455  0.15059976    -0.38100
C877        C  0.02393258  0.91316004  0.09982149    -0.04700
C878        C  0.02274719  0.93414651  0.12744656    -0.01900
C879        C  0.05132004  0.96979942  0.13279976     0.03100
C880        C  0.08000719  0.98523428  0.10934715    -0.04700
C881        C  0.07949838  0.96470865  0.08027546    -0.01800
C882        C  0.05266456  0.92828635  0.07668360     0.03100
C883        C  0.99182928  0.91950035  0.15008863     0.37800
C884        C  0.10418423  0.98159478  0.05204067     0.37800
C885        C  0.05338334  0.90688041  0.04799186     0.36200
C886        C  0.04905196  0.99170257  0.16000332     0.36200
N887        N  0.05387445  0.88969935  0.02521291    -0.38600
N888        N  0.04646857  0.00909091  0.18132824    -0.38600
N889        N  0.12257561  0.99523905  0.02868551    -0.38100
N890        N  0.96761909  0.90871959  0.16862195    -0.38100
C891        C  0.87523226  0.96517909  0.10204495    -0.04700
C892        C  0.89141611  0.95691356  0.07473287    -0.01900
C893        C  0.90073554  0.93067861  0.07859222     0.03100
C894        C  0.89005339  0.90898556  0.10827139    -0.04700
C895        C  0.87232283  0.91612336  0.13512033    -0.01800
C896        C  0.86499262  0.94418507  0.13204167     0.03100
C897        C  0.89812586  0.97513296  0.04204543     0.37800
C898        C  0.86175324  0.89500375  0.16614374     0.37800
C899        C  0.84717720  0.95141166  0.15990210     0.36200
C900        C  0.92338783  0.92790968  0.05257833     0.36200
N901        N  0.83254532  0.95662961  0.18214946    -0.38600
N902        N  0.94182200  0.92631225  0.03189708    -0.38600
N903        N  0.85350374  0.87844118  0.19103816    -0.38100
N904        N  0.90329560  0.98958580  0.01609544    -0.38100
C905        C  0.85503513  0.69982687  0.15680723    -0.04700
C906        C  0.82259898  0.67591500  0.13946294    -0.01900
C907        C  0.79685739  0.64321860  0.15466857     0.03100
C908        C  0.80323284  0.63427845  0.18750944    -0.04700
C909        C  0.83601354  0.65786330  0.20454996    -0.01800
C910        C  0.86181168  0.69054866  0.18929309     0.03100
C911        C  0.81616930  0.68472921  0.10551890     0.37800
C912        C  0.84317498  0.64835228  0.23782783     0.37800
C913        C  0.89512224  0.71489557  0.20724321     0.36200
C914        C  0.76434999  0.61813564  0.13595966     0.36200
N915        N  0.92177530  0.73420816  0.22149783    -0.38600
N916        N  0.73848837  0.59811411  0.12096919    -0.38600
N917        N  0.84885733  0.64073807  0.26438294    -0.38100
N918        N  0.81125565  0.69175574  0.07835455    -0.38100
C919        C  0.82098353  0.35618736  0.04998873    -0.04700
C920        C  0.78423293  0.33192069  0.05750106    -0.01900
C921        C  0.77393370  0.30854304  0.08620033     0.03100
C922        C  0.80034871  0.30940114  0.10839615    -0.04700
C923        C  0.83731782  0.33351743  0.09995609    -0.01800
C924        C  0.84725482  0.35657229  0.07143199     0.03100
C925        C  0.75689976  0.32976251  0.03465390     0.37800
C926        C  0.86599584  0.33403161  0.11956754     0.37800
C927        C  0.88513656  0.38037652  0.06355038     0.36200
C928        C  0.73602284  0.28375597  0.09259237     0.36200
N929        N  0.91536686  0.39906059  0.05736215    -0.38600
N930        N  0.70569730  0.26411806  0.09766749    -0.38600
N931        N  0.88902179  0.33472504  0.13510700    -0.38100
N932        N  0.73499354  0.32761171  0.01626024    -0.38100
C933        C  0.95961919  0.47083437  0.98750279    -0.04700
C934        C  0.98979878  0.48007185  0.96670496    -0.01900
C935        C  0.02463856  0.50590868  0.97843934     0.03100
C936        C  0.02971278  0.52205993  0.01148530    -0.04700
C937        C  0.99954816  0.51317174  0.03211947    -0.01800
C938        C  0.96465662  0.48793734  0.02012225     0.03100
C939        C  0.98495219  0.46417592  0.93264240     0.37800
C940        C  0.00441289  0.52900848  0.06622304     0.37800
C941        C  0.93393967  0.47921877  0.04184690     0.36200
C942        C  0.05525709  0.51685296  0.95588364     0.36200
N943        N  0.90947145  0.47241055  0.05910537    -0.38600
N944        N  0.07966976  0.52577436  0.93788079    -0.38600
N945        N  0.00827882  0.54160293  0.09342912    -0.38100
N946        N  0.98107641  0.45151019  0.90546803    -0.38100
C947        C  0.31456769  0.74799466  0.06129742    -0.04700
C948        C  0.30669914  0.72425171  0.08887280    -0.01900
C949        C  0.27096510  0.69959339  0.09791775     0.03100
C950        C  0.24209555  0.69446177  0.07678481    -0.04700
C951        C  0.25014286  0.71636901  0.04733167    -0.01800
C952        C  0.28622100  0.74315801  0.03985809     0.03100
C953        C  0.33557981  0.72427603  0.10761549     0.37800
C954        C  0.22179700  0.71160141  0.02433846     0.37800
C955        C  0.29396506  0.76559435  0.01000472     0.36200
C956        C  0.26447761  0.67995479  0.12969587     0.36200
N957        N  0.30002236  0.78329680  0.98611060    -0.38600
N958        N  0.25951482  0.66421243  0.15480515    -0.38600
N959        N  0.19952511  0.70841130  0.00577022    -0.38100
N960        N  0.35835983  0.72392887  0.12262456    -0.38100
C961        C  0.52897894  0.17026969  0.05881133    -0.04700
C962        C  0.55512137  0.20067855  0.07793278    -0.01900
C963        C  0.54490938  0.21339392  0.10740579     0.03100
C964        C  0.50826403  0.19699058  0.11723951    -0.04700
C965        C  0.48249181  0.16618594  0.09863341    -0.01800
C966        C  0.49280229  0.15224717  0.07078568     0.03100
C967        C  0.59249154  0.21894828  0.06744790     0.37800
C968        C  0.44481761  0.14811006  0.10859035     0.37800
C969        C  0.46585926  0.11807455  0.05541674     0.36200
C970        C  0.57232251  0.24201220  0.12868165     0.36200
N971        N  0.44440012  0.09078304  0.04332793    -0.38600
N972        N  0.59436760  0.26449933  0.14588862    -0.38600
N973        N  0.41483963  0.13364037  0.11655464    -0.38100
N974        N  0.62236885  0.23346850  0.05912498    -0.38100
C975        C  0.67692662  0.23731004  0.93360023    -0.04700
C976        C  0.68883796  0.25450271  0.90119117    -0.01900
C977        C  0.72553733  0.27811635  0.89498016     0.03100
C978        C  0.75072261  0.28826534  0.92168001    -0.04700
C979        C  0.73990207  0.26978162  0.95307142    -0.01800
C980        C  0.70307202  0.24475216  0.95926316     0.03100
C981        C  0.66384882  0.24954980  0.87395552     0.37800
C982        C  0.76658910  0.27582165  0.97873526     0.37800
C983        C  0.69259948  0.22678144  0.99205869     0.36200
C984        C  0.73771501  0.29190199  0.86060943     0.36200
N985        N  0.68448075  0.21255511  0.01825649    -0.38600
N986        N  0.74757876  0.30268068  0.83329925    -0.38600
N987        N  0.78780054  0.27985795  0.99903796    -0.38100
N988        N  0.64442554  0.24579597  0.85185523    -0.38100
C989        C  0.50015954  0.03151961  0.99200812    -0.04700
C990        C  0.49508745  0.00438204  0.96823872    -0.01900
C991        C  0.48878451  0.97084077  0.97985554     0.03100
C992        C  0.48762172  0.96405544  0.01539630    -0.04700
C993        C  0.49358496  0.99145189  0.03917921    -0.01800
C994        C  0.50012821  0.02510084  0.02756677     0.03100
C995        C  0.49788380  0.01156149  0.93179069     0.37800
C996        C  0.49284045  0.98491881  0.07561903     0.37800
C997        C  0.50759270  0.05351614  0.05227557     0.36200
C998        C  0.48436930  0.94342928  0.95517788     0.36200
N999        N  0.51379477  0.07625313  0.07197828    -0.38600
N1000       N  0.48109000  0.92159399  0.93558998    -0.38600
N1001       N  0.49242239  0.97972908  0.10470109    -0.38100
N1002       N  0.50030270  0.01740826  0.90271749    -0.38100
C1003       C  0.28607058  0.52928883  0.07422577    -0.04700
C1004       C  0.27167475  0.53479300  0.10440148    -0.01900
C1005       C  0.24545631  0.54466549  0.10278145     0.03100
C1006       C  0.23233933  0.54827583  0.07031515    -0.04700
C1007       C  0.24426643  0.53843496  0.04018861    -0.01800
C1008       C  0.27035990  0.52823401  0.04244685     0.03100
C1009       C  0.28369761  0.52939861  0.13733413     0.37800
C1010       C  0.23038880  0.53891410  0.00653841     0.37800
C1011       C  0.28025298  0.51559171  0.01215395     0.36200
C1012       C  0.23337817  0.55177988  0.13514835     0.36200
N1013       N  0.28679978  0.50421798  0.98800956    -0.38600
N1014       N  0.22432107  0.55741859  0.16129097    -0.38600
N1015       N  0.21960539  0.53933647  0.97954828    -0.38100
N1016       N  0.29316356  0.52445923  0.16328636    -0.38100
C1017       C  0.45526583  0.75363670  0.07166455    -0.04700
C1018       C  0.46200736  0.74169909  0.04006058    -0.01900
C1019       C  0.45054165  0.70487124  0.03496244     0.03100
C1020       C  0.43010457  0.67957959  0.06066916    -0.04700
C1021       C  0.42182450  0.69204135  0.09117459    -0.01800
C1022       C  0.43847135  0.72885820  0.09820157     0.03100
C1023       C  0.48103273  0.76699857  0.01296254     0.37800
C1024       C  0.39320958  0.66742864  0.11382437     0.37800
C1025       C  0.43848650  0.74144380  0.13300162     0.36200
C1026       C  0.45924364  0.69333208  0.00309805     0.36200
N1027       N  0.43924770  0.75187463  0.16068824    -0.38600
N1028       N  0.46614555  0.68420907  0.97759499    -0.38600
N1029       N  0.36960270  0.64805228  0.13128598    -0.38100
N1030       N  0.49676187  0.78673694  0.99112360    -0.38100
C1031       C  0.68720262  0.49444405  0.12185744    -0.04700
C1032       C  0.70395560  0.50383956  0.08936658    -0.01900
C1033       C  0.68309338  0.49427521  0.05861781     0.03100
C1034       C  0.64461887  0.47329030  0.05932581    -0.04700
C1035       C  0.62798657  0.46233769  0.09176904    -0.01800
C1036       C  0.64871683  0.47432917  0.12253983     0.03100
C1037       C  0.74290682  0.52570604  0.08750609     0.37800
C1038       C  0.58913658  0.43933311  0.09392751     0.37800
C1039       C  0.62956145  0.46683528  0.15485590     0.36200
C1040       C  0.70192157  0.50633655  0.02621172     0.36200
N1041       N  0.61344155  0.46112125  0.18011666    -0.38600
N1042       N  0.71750424  0.51650515  0.00067289    -0.38600
N1043       N  0.55821392  0.42068727  0.09587159    -0.38100
N1044       N  0.77395835  0.54331344  0.08599130    -0.38100
C1045       C  0.56170263  0.31806804  0.95074950    -0.04700
C1046       C  0.57901201  0.31014105  0.92434251    -0.01900
C1047       C  0.56668089  0.27438681  0.91453608     0.03100
C1048       C  0.54199280  0.24544877  0.93538879    -0.04700
C1049       C  0.52735134  0.25368191  0.96452853    -0.01800
C1050       C  0.53637997  0.28971807  0.97147733     0.03100
C1051       C  0.61074995  0.33896611  0.90773534     0.37800
C1052       C  0.50307816  0.22554767  0.98757252     0.37800
C1053       C  0.51971675  0.29749543  0.99999071     0.36200
C1054       C  0.57817123  0.26815547  0.88143308     0.36200
N1055       N  0.50641386  0.30362229  0.02281981    -0.38600
N1056       N  0.58736418  0.26422631  0.85464859    -0.38600
N1057       N  0.48362012  0.20332685  0.00613837    -0.38100
N1058       N  0.63649319  0.36147147  0.89474555    -0.38100
C1059       C  0.69868057  0.45433694  0.93474296    -0.04700
C1060       C  0.70157235  0.43646804  0.96337210    -0.01900
C1061       C  0.72914192  0.42845474  0.96490628     0.03100
C1062       C  0.75230334  0.43571932  0.93649028    -0.04700
C1063       C  0.74892460  0.45359738  0.90766471    -0.01800
C1064       C  0.72283436  0.46361164  0.90734093     0.03100
C1065       C  0.67467791  0.42403244  0.99029828     0.37800
C1066       C  0.77143275  0.46111964  0.87763035     0.37800
C1067       C  0.71957846  0.48190611  0.87790849     0.36200
C1068       C  0.73229488  0.41135456  0.99530247     0.36200
N1069       N  0.71704436  0.49641712  0.85440641    -0.38600
N1070       N  0.73477329  0.39815699  0.01987660    -0.38600
N1071       N  0.78882762  0.46638069  0.85334032    -0.38100
N1072       N  0.65320906  0.41336323  0.01176181    -0.38100
C1073       C  0.52780688  0.49640049  0.99235049    -0.04700
C1074       C  0.50899085  0.50446137  0.96810955    -0.01900
C1075       C  0.48202821  0.51171199  0.97905278     0.03100
C1076       C  0.47308501  0.51030763  0.01433552    -0.04700
C1077       C  0.49260783  0.50320122  0.03851207    -0.01800
C1078       C  0.52003198  0.49676717  0.02762683     0.03100
C1079       C  0.51713240  0.50498153  0.93190782     0.37800
C1080       C  0.48528084  0.50368492  0.07478392     0.37800
C1081       C  0.54158476  0.49214931  0.05295536     0.36200
C1082       C  0.46328262  0.52045728  0.95388335     0.36200
N1083       N  0.55925698  0.48921064  0.07320353    -0.38600
N1084       N  0.44846272  0.52756458  0.93377679    -0.38600
N1085       N  0.47941265  0.50404290  0.10374059    -0.38100
N1086       N  0.52375013  0.50563711  0.90301623    -0.38100
C1087       C  0.18386068  0.97873047  0.99395742    -0.04700
C1088       C  0.21074155  0.01537700  0.99008488    -0.01900
C1089       C  0.22044061  0.03975216  0.01830407     0.03100
C1090       C  0.20306047  0.02786937  0.05031881    -0.04700
C1091       C  0.18345604  0.99029164  0.05605842    -0.01800
C1092       C  0.17339473  0.96581852  0.02776575     0.03100
C1093       C  0.22580546  0.02874906  0.95650643     0.37800
C1094       C  0.16921362  0.97678113  0.08987018     0.37800
C1095       C  0.14945823  0.92760463  0.03298825     0.36200
C1096       C  0.24741636  0.07743647  0.01437617     0.36200
N1097       N  0.13037488  0.89712616  0.03737187    -0.38600
N1098       N  0.26944588  0.10745366  0.01166555    -0.38600
N1099       N  0.15758349  0.96583699  0.11675412    -0.38100
N1100       N  0.23792058  0.03939408  0.92969544    -0.38100
C1101       C  0.02161983  0.81227574  0.95507402    -0.04700
C1102       C  0.98431453  0.79622227  0.94826494    -0.01900
C1103       C  0.95947511  0.78355886  0.97569387     0.03100
C1104       C  0.97165906  0.78629853  0.00975940    -0.04700
C1105       C  0.00745974  0.79485569  0.01525696    -0.01800
C1106       C  0.03214384  0.80698266  0.98767733     0.03100
C1107       C  0.97155059  0.79555318  0.91379108     0.37800
C1108       C  0.02017087  0.79567785  0.04978892     0.37800
C1109       C  0.06905840  0.81639667  0.99319472     0.36200
C1110       C  0.92172124  0.77015401  0.96917076     0.36200
N1111       N  0.09844886  0.82355997  0.99737212    -0.38600
N1112       N  0.89165213  0.75939499  0.96353555    -0.38600
N1113       N  0.03040115  0.79659925  0.07737177    -0.38100
N1114       N  0.96112782  0.79475172  0.88631948    -0.38100
C1115       C  0.18804381  0.68388185  0.89699289    -0.04700
C1116       C  0.21303289  0.67600007  0.91166505    -0.01900
C1117       C  0.20279703  0.65163592  0.93947930     0.03100
C1118       C  0.16701175  0.63351663  0.95186051    -0.04700
C1119       C  0.14174683  0.64023728  0.93604752    -0.01800
C1120       C  0.15227842  0.66563960  0.90959050     0.03100
C1121       C  0.24881930  0.69176426  0.89723525     0.37800
C1122       C  0.10447237  0.62101704  0.94733614     0.37800
C1123       C  0.12604135  0.67341838  0.89567416     0.36200
C1124       C  0.22937188  0.64623147  0.95616480     0.36200
N1125       N  0.10510490  0.67958770  0.88463989    -0.38600
N1126       N  0.25060704  0.64202492  0.96964989    -0.38600
N1127       N  0.07479923  0.60572492  0.95634312    -0.38100
N1128       N  0.27727353  0.70409510  0.88543709    -0.38100
C1129       C  0.16070656  0.79623958  0.83054680    -0.04700
C1130       C  0.14610683  0.80886058  0.80613224    -0.01900
C1131       C  0.14054988  0.83754043  0.81466554     0.03100
C1132       C  0.14840399  0.85325435  0.84814661    -0.04700
C1133       C  0.16147683  0.83948723  0.87300214    -0.01800
C1134       C  0.16785271  0.81143221  0.86420997     0.03100
C1135       C  0.13744862  0.79280027  0.77200332     0.37800
C1136       C  0.16706430  0.85322727  0.90801684     0.37800
C1137       C  0.18140820  0.79769629  0.89012239     0.36200
C1138       C  0.12757380  0.85163452  0.78856003     0.36200
N1139       N  0.19217188  0.78665979  0.91073864    -0.38600
N1140       N  0.11739133  0.86308332  0.76779385    -0.38600
N1141       N  0.17132794  0.86412057  0.93596848    -0.38100
N1142       N  0.13018894  0.77971492  0.74487177    -0.38100
C1143       C  0.09938467  0.08824056  0.90232769    -0.04700
C1144       C  0.11563219  0.07962687  0.87507378    -0.01900
C1145       C  0.12242783  0.05108492  0.87831262     0.03100
C1146       C  0.11201973  0.02994265  0.90829705    -0.04700
C1147       C  0.09510763  0.03824941  0.93511922    -0.01800
C1148       C  0.08971677  0.06739356  0.93252389     0.03100
C1149       C  0.12639387  0.10057150  0.84396738     0.37800
C1150       C  0.08167293  0.01625539  0.96554876     0.37800
C1151       C  0.07390510  0.07534430  0.96183639     0.36200
C1152       C  0.13918614  0.04307065  0.85003077     0.36200
N1153       N  0.06217134  0.08160691  0.98581128    -0.38600
N1154       N  0.15290508  0.03743784  0.82729118    -0.38600
N1155       N  0.06927839  0.99859486  0.98950781    -0.38100
N1156       N  0.13508096  0.11722222  0.81906762    -0.38100
C1157       C  0.20929717  0.19279978  0.01644028    -0.04700
C1158       C  0.20907997  0.18041746  0.98250116    -0.01900
C1159       C  0.19489093  0.19041558  0.95500955     0.03100
C1160       C  0.18096208  0.21322446  0.96113918    -0.04700
C1161       C  0.18856102  0.23144229  0.99328153    -0.01800
C1162       C  0.20152472  0.22055673  0.02110472     0.03100
C1163       C  0.22025148  0.15455183  0.97631458     0.37800
C1164       C  0.18065619  0.25985435  0.99831161     0.37800
C1165       C  0.20178389  0.23439514  0.05528919     0.36200
C1166       C  0.19185917  0.17449032  0.92128430     0.36200
N1167       N  0.20145610  0.24514111  0.08258399    -0.38600
N1168       N  0.18976983  0.16174332  0.89444131    -0.38600
N1169       N  0.17462687  0.28272747  0.00223008    -0.38100
N1170       N  0.22882941  0.13373608  0.97091151    -0.38100
C1171       C  0.01860914  0.21295123  0.00081701    -0.04700
C1172       C  0.03155081  0.21682176  0.03479243    -0.01900
C1173       C  0.00715216  0.20386543  0.06272136     0.03100
C1174       C  0.96962660  0.18608970  0.05649879    -0.04700
C1175       C  0.95807562  0.19041905  0.02405098    -0.01800
C1176       C  0.98226881  0.20310327  0.99602173     0.03100
C1177       C  0.06966124  0.23159960  0.04063954     0.37800
C1178       C  0.92070684  0.17981181  0.01936922     0.37800
C1179       C  0.96867953  0.20200953  0.96184343     0.36200
C1180       C  0.02057111  0.20608769  0.09719093     0.36200
N1181       N  0.95767468  0.20098888  0.93459584    -0.38600
N1182       N  0.03144623  0.20823065  0.12472318    -0.38600
N1183       N  0.89094586  0.17175437  0.01600478    -0.38100
N1184       N  0.10009190  0.24345914  0.04536835    -0.38100
C1185       C  0.30904799  0.50140074  0.88791990    -0.04700
C1186       C  0.32210113  0.48014043  0.90177046    -0.01900
C1187       C  0.34555784  0.49234437  0.93048120     0.03100
C1188       C  0.35665280  0.52609506  0.94641263    -0.04700
C1189       C  0.34415759  0.54769844  0.93244479    -0.01800
C1190       C  0.32040634  0.53538796  0.90360487     0.03100
C1191       C  0.31119680  0.44511394  0.88668689     0.37800
C1192       C  0.35438376  0.58195412  0.94872180     0.37800
C1193       C  0.30896837  0.55849990  0.88921590     0.36200
C1194       C  0.35867544  0.46994901  0.94344010     0.36200
N1195       N  0.29992903  0.57701432  0.87766825    -0.38600
N1196       N  0.36904871  0.45204790  0.95377036    -0.38600
N1197       N  0.36249825  0.60924927  0.96182192    -0.38100
N1198       N  0.30272182  0.41730169  0.87457840    -0.38100
C1199       C  0.13782781  0.29760304  0.85187012    -0.04700
C1200       C  0.15819986  0.32665147  0.87474941    -0.01900
C1201       C  0.18473108  0.36040579  0.86192225     0.03100
C1202       C  0.19102771  0.36519995  0.82615207    -0.04700
C1203       C  0.17081169  0.33616269  0.80337155    -0.01800
C1204       C  0.14485107  0.30230155  0.81619585     0.03100
C1205       C  0.15317611  0.32131435  0.91148304     0.37800
C1206       C  0.17585021  0.34149888  0.76664748     0.37800
C1207       C  0.12596797  0.27197987  0.79258964     0.36200
C1208       C  0.20596320  0.39015248  0.88558210     0.36200
N1209       N  0.11139119  0.24778588  0.77370492    -0.38600
N1210       N  0.22287093  0.41383261  0.90447398    -0.38600
N1211       N  0.17975708  0.34591600  0.73736292    -0.38100
N1212       N  0.14938587  0.31705395  0.94080199    -0.38100
C1213       C  0.22857378  0.57333502  0.77533037    -0.04700
C1214       C  0.24176709  0.59754108  0.74761185    -0.01900
C1215       C  0.23235600  0.62382889  0.74430779     0.03100
C1216       C  0.20955523  0.62685153  0.76878219    -0.04700
C1217       C  0.19556139  0.60217056  0.79605557    -0.01800
C1218       C  0.20557110  0.57599495  0.79969037     0.03100
C1219       C  0.26737890  0.59746082  0.72331991     0.37800
C1220       C  0.17238921  0.60473951  0.82147731     0.37800
C1221       C  0.19227584  0.55211084  0.82878941     0.36200
C1222       C  0.25023017  0.65043968  0.71763718     0.36200
N1223       N  0.18169372  0.53315358  0.85206643    -0.38600
N1224       N  0.26651657  0.67237354  0.69759252    -0.38600
N1225       N  0.15374774  0.60646720  0.84182141    -0.38100
N1226       N  0.28771344  0.59765823  0.70380856    -0.38100
C1227       C  0.91446885  0.01277778  0.89240151    -0.04700
C1228       C  0.91742764  0.04117759  0.87251407    -0.01900
C1229       C  0.94257704  0.07741392  0.88187969     0.03100
C1230       C  0.96456932  0.08538641  0.91150867    -0.04700
C1231       C  0.96066177  0.05639850  0.93126631    -0.01800
C1232       C  0.93870766  0.02086802  0.91976006     0.03100
C1233       C  0.89484462  0.03333467  0.84245537     0.37800
C1234       C  0.97707780  0.06228630  0.96491188     0.37800
C1235       C  0.94138733  0.99240616  0.93621000     0.36200
C1236       C  0.94480710  0.10605773  0.86127342     0.36200
N1237       N  0.94372281  0.96985383  0.94912177    -0.38600
N1238       N  0.94589575  0.12859226  0.84486132    -0.38600
N1239       N  0.98904530  0.06573841  0.99213105    -0.38100
N1240       N  0.87697438  0.02719897  0.81835401    -0.38100
C1241       C  0.89947080  0.86169578  0.90304498    -0.04700
C1242       C  0.91930497  0.86729381  0.93305973    -0.01900
C1243       C  0.95548450  0.87698265  0.93107591     0.03100
C1244       C  0.97181073  0.87928591  0.89834943    -0.04700
C1245       C  0.94943824  0.86778924  0.86864807    -0.01800
C1246       C  0.91326628  0.85886315  0.87118491     0.03100
C1247       C  0.90180436  0.86260504  0.96618523     0.37800
C1248       C  0.96295929  0.86484140  0.83534313     0.37800
C1249       C  0.89010498  0.84609051  0.84123070     0.36200
C1250       C  0.97514182  0.88538264  0.96326107     0.36200
N1251       N  0.87161785  0.83477094  0.81734013    -0.38600
N1252       N  0.99032869  0.89210689  0.98919912    -0.38600
N1253       N  0.97340446  0.86227163  0.80869566    -0.38100
N1254       N  0.88728680  0.85821484  0.99223845    -0.38100
C1255       C  0.79240176  0.97260473  0.95876118    -0.04700
C1256       C  0.81473498  0.01017184  0.95433067    -0.01900
C1257       C  0.82445498  0.03396053  0.98296771     0.03100
C1258       C  0.81140262  0.02054349  0.01614456    -0.04700
C1259       C  0.78342770  0.98418151  0.01896014    -0.01800
C1260       C  0.77375891  0.96045090  0.99024076     0.03100
C1261       C  0.82981001  0.02441486  0.92099064     0.37800
C1262       C  0.76737910  0.97015012  0.05211210     0.37800
C1263       C  0.74554164  0.92304414  0.99327907     0.36200
C1264       C  0.85023920  0.07200206  0.97874143     0.36200
N1265       N  0.72270296  0.89325768  0.99538051    -0.38600
N1266       N  0.87093482  0.10226254  0.97502647    -0.45800
N1267       N  0.75463183  0.95893859  0.07860233    -0.38100
N1268       N  0.84154832  0.03626070  0.89440157    -0.38100
C1269       C  0.78280696  0.80686161  0.98912582    -0.04700
C1270       C  0.79118804  0.77965225  0.98390718    -0.01900
C1271       C  0.80434722  0.76854391  0.01145213     0.03100
C1272       C  0.81066004  0.78544368  0.04425823    -0.04700
C1273       C  0.79601935  0.80759815  0.05071175    -0.01800
C1274       C  0.78243158  0.81836653  0.02326602     0.03100
C1275       C  0.79061230  0.76624356  0.94944360     0.37800
C1276       C  0.79752803  0.82194863  0.08492056     0.37800
C1277       C  0.77076876  0.84376568  0.02980869     0.36200
C1278       C  0.81320973  0.74093302  0.00558427     0.36200
N1279       N  0.76160345  0.86407946  0.03551839    -0.38600
N1280       N  0.81990846  0.71861228  0.00090380    -0.38600
N1281       N  0.79841315  0.83334159  0.11218591    -0.38100
N1282       N  0.79042252  0.75572763  0.92192044    -0.38100
C1283       C  0.48755329  0.79626036  0.89249300    -0.04700
C1284       C  0.51317216  0.82563315  0.91272265    -0.01900
C1285       C  0.50235992  0.84185107  0.93796075     0.03100
C1286       C  0.46550442  0.82619889  0.94732577    -0.04700
C1287       C  0.43960340  0.79610590  0.92757785    -0.01800
C1288       C  0.45054512  0.78171312  0.89999716     0.03100
C1289       C  0.55131833  0.83917370  0.90790550     0.37800
C1290       C  0.40165031  0.78012052  0.93510818     0.37800
C1291       C  0.42365285  0.75256346  0.87875454     0.36200
C1292       C  0.52974186  0.87573515  0.95340660     0.36200
N1293       N  0.40217612  0.72926621  0.86179296    -0.38600
N1294       N  0.55163600  0.90283770  0.96546272    -0.38600
N1295       N  0.37129060  0.76747528  0.94087289    -0.38100
N1296       N  0.58170493  0.84984988  0.90442830    -0.38100
C1297       C  0.41921607  0.64525158  0.76841301    -0.04700
C1298       C  0.41284527  0.62835610  0.73527406    -0.01900
C1299       C  0.38907899  0.59104424  0.73164097     0.03100
C1300       C  0.37202080  0.57038667  0.76045919    -0.04700
C1301       C  0.38359013  0.58548803  0.79331936    -0.01800
C1302       C  0.40519955  0.62300265  0.79762660     0.03100
C1303       C  0.43126918  0.64844306  0.70481866     0.37800
C1304       C  0.37679482  0.56222685  0.82208263     0.37800
C1305       C  0.41194852  0.63798064  0.83223087     0.36200
C1306       C  0.38468155  0.57279946  0.69898410     0.36200
N1307       N  0.41703219  0.64959711  0.85994425    -0.38600
N1308       N  0.38185352  0.55771128  0.67338269    -0.38600
N1309       N  0.37390375  0.54412478  0.84479701    -0.38100
N1310       N  0.44607131  0.66440924  0.68056246    -0.38100
C1311       C  0.62517449  0.82550856  0.82340325    -0.04700
C1312       C  0.65531510  0.84879880  0.80327912    -0.01900
C1313       C  0.69042293  0.85879153  0.81404048     0.03100
C1314       C  0.69598164  0.84540680  0.84500124    -0.04700
C1315       C  0.66594179  0.82179452  0.86490900    -0.01800
C1316       C  0.63090792  0.81227938  0.85454637     0.03100
C1317       C  0.65028508  0.86125245  0.77062057     0.37800
C1318       C  0.67104097  0.80781286  0.89662374     0.37800
C1319       C  0.60091059  0.78921392  0.87675398     0.36200
C1320       C  0.72078821  0.88189889  0.79226661     0.36200
N1321       N  0.57715761  0.77070184  0.89449764    -0.38600
N1322       N  0.74494634  0.90036937  0.77491682    -0.38600
N1323       N  0.67511490  0.79651790  0.92180072    -0.38100
N1324       N  0.64626222  0.87110110  0.74451767    -0.38100
C1325       C  0.41014234  0.78168272  0.78237509    -0.04700
C1326       C  0.37913488  0.74693902  0.77593965    -0.01900
C1327       C  0.34524897  0.73910711  0.78747584     0.03100
C1328       C  0.34078592  0.76596108  0.80230321    -0.04700
C1329       C  0.37108736  0.79808160  0.81375537    -0.01800
C1330       C  0.40583447  0.80657820  0.80316424     0.03100
C1331       C  0.38067115  0.71852596  0.75730266     0.37800
C1332       C  0.36642109  0.82069909  0.83836520     0.37800
C1333       C  0.43639131  0.84142272  0.81284363     0.36200
C1334       C  0.31536011  0.70229870  0.78795317     0.36200
N1335       N  0.46057978  0.86929075  0.82067042    -0.38600
N1336       N  0.29244586  0.67266535  0.79026323    -0.38600
N1337       N  0.36270407  0.83826952  0.85870297    -0.38100
N1338       N  0.38037752  0.69529343  0.74197039    -0.38100
C1339       C  0.85162639  0.83908138  0.71755176    -0.04700
C1340       C  0.87596898  0.87251111  0.73383714    -0.01900
C1341       C  0.86530213  0.88470774  0.76331891     0.03100
C1342       C  0.82974409  0.86440706  0.77626348    -0.04700
C1343       C  0.80515841  0.83188342  0.75922020    -0.01800
C1344       C  0.81610451  0.81887264  0.73103953     0.03100
C1345       C  0.91179002  0.89488573  0.71995238     0.37800
C1346       C  0.76802115  0.81148807  0.77082648     0.37800
C1347       C  0.79041703  0.78368915  0.71679410     0.36200
C1348       C  0.89157005  0.91707909  0.78153214     0.36200
N1349       N  0.76955918  0.75562167  0.70575054    -0.38600
N1350       N  0.91263697  0.94271712  0.79628690    -0.38600
N1351       N  0.73846750  0.79537700  0.78011526    -0.38100
N1352       N  0.94036009  0.91287448  0.70878555    -0.38100
C1353       C  0.81851592  0.63052482  0.67944996    -0.04700
C1354       C  0.85315927  0.65468160  0.66638006    -0.01900
C1355       C  0.86135196  0.68830620  0.65286398     0.03100
C1356       C  0.83520180  0.69899322  0.65249560    -0.04700
C1357       C  0.80059615  0.67478307  0.66551394    -0.01800
C1358       C  0.79268110  0.64158454  0.67968880     0.03100
C1359       C  0.88060514  0.64505246  0.66629665     0.37800
C1360       C  0.77270406  0.68376094  0.66466548     0.37800
C1361       C  0.75779301  0.61958369  0.69581997     0.36200
C1362       C  0.89683228  0.71117685  0.63814243     0.36200
N1363       N  0.72988512  0.60253522  0.70852677    -0.38600
N1364       N  0.92524002  0.72905170  0.62664724    -0.38600
N1365       N  0.74991925  0.69018819  0.66363788    -0.38100
N1366       N  0.90287514  0.63785528  0.66638597    -0.38100
C1367       C  0.85827923  0.54437549  0.82283879    -0.04700
C1368       C  0.88304473  0.53289163  0.81686231    -0.01900
C1369       C  0.89219843  0.51743653  0.84376392     0.03100
C1370       C  0.87549841  0.51188379  0.87622119    -0.04700
C1371       C  0.85772805  0.53088936  0.88397394    -0.01800
C1372       C  0.84898999  0.54691745  0.85720320     0.03100
C1373       C  0.89562340  0.53278848  0.78233119     0.37800
C1374       C  0.84459298  0.53042099  0.91836300     0.37800
C1375       C  0.82693060  0.56244860  0.86433467     0.36200
C1376       C  0.91783613  0.50598313  0.83794204     0.36200
N1377       N  0.80924257  0.57473978  0.87007478    -0.38600
N1378       N  0.93889551  0.49750754  0.83378269    -0.38600
N1379       N  0.83398808  0.53006379  0.94576936    -0.38100
N1380       N  0.90552934  0.53252054  0.75474206    -0.38100
C1381       C  0.64535785  0.51883466  0.84465573    -0.04700
C1382       C  0.68065621  0.54901048  0.84884266    -0.01900
C1383       C  0.70523566  0.56078021  0.82101645     0.03100
C1384       C  0.69461710  0.54308986  0.78864879    -0.04700
C1385       C  0.65738767  0.51910174  0.78282140    -0.01800
C1386       C  0.63325442  0.50562683  0.81088072     0.03100
C1387       C  0.69310291  0.56553701  0.88245441     0.37800
C1388       C  0.64400122  0.50697825  0.74827915     0.37800
C1389       C  0.59655391  0.47631328  0.80516302     0.36200
C1390       C  0.74214709  0.58984834  0.82609877     0.36200
N1391       N  0.56747526  0.45262814  0.80043086    -0.38600
N1392       N  0.77158273  0.61310071  0.83005522    -0.38600
N1393       N  0.63317375  0.49801662  0.72060465    -0.38100
N1394       N  0.70312872  0.57885230  0.90924896    -0.38100
C1395       C  0.96893608  0.13573074  0.73298678    -0.04700
C1396       C  0.97668970  0.11166076  0.74975506    -0.01900
C1397       C  0.00192086  0.12380069  0.77745307     0.03100
C1398       C  0.01964938  0.16007214  0.78911167    -0.04700
C1399       C  0.01054238  0.18360709  0.77338177    -0.01800
C1400       C  0.98522228  0.17151171  0.74616797     0.03100
C1401       C  0.95851069  0.07425558  0.73888742     0.37800
C1402       C  0.02704236  0.22069307  0.78541250     0.37800
C1403       C  0.97479012  0.19589879  0.73269930     0.36200
C1404       C  0.00839484  0.09851825  0.79510892     0.36200
N1405       N  0.96635864  0.21526906  0.72210392    -0.38600
N1406       N  0.01357617  0.07844831  0.80944076    -0.38600
N1407       N  0.03993743  0.25024730  0.79487965    -0.38100
N1408       N  0.94364613  0.04423670  0.73056004    -0.38100
C1409       C  0.88952000  0.98178086  0.61421299    -0.04700
C1410       C  0.90599640  0.97430682  0.58658095    -0.01900
C1411       C  0.89334693  0.93875126  0.57550900     0.03100
C1412       C  0.86761420  0.90913796  0.59518903    -0.04700
C1413       C  0.85289905  0.91669071  0.62470776    -0.01800
C1414       C  0.86366367  0.95276982  0.63395010     0.03100
C1415       C  0.93788201  0.00345380  0.57058911     0.37800
C1416       C  0.82679938  0.88773672  0.64598407     0.37800
C1417       C  0.84873353  0.95993727  0.66428179     0.36200
C1418       C  0.90711932  0.93334476  0.54327464     0.36200
N1419       N  0.83698483  0.96556688  0.68869436    -0.38600
N1420       N  0.91838430  0.92923997  0.51772945    -0.38600
N1421       N  0.80575136  0.86484215  0.66304144    -0.38100
N1422       N  0.96363273  0.02648217  0.55815785    -0.38100
C1423       C  0.76091602  0.34524923  0.71964893    -0.04700
C1424       C  0.74496610  0.35345552  0.74717686    -0.01900
C1425       C  0.75801287  0.38925852  0.75712176     0.03100
C1426       C  0.78211392  0.41796506  0.73579784    -0.04700
C1427       C  0.79596359  0.40961354  0.70620064    -0.01800
C1428       C  0.78590591  0.37344248  0.69858141     0.03100
C1429       C  0.71426099  0.32486368  0.76527674     0.37800
C1430       C  0.82100644  0.43787055  0.68371956     0.37800
C1431       C  0.80117156  0.36537009  0.66907026     0.36200
C1432       C  0.74794112  0.39578528  0.79080187     0.36200
N1433       N  0.81320021  0.35894752  0.64535181    -0.38600
N1434       N  0.73962186  0.39945498  0.81810325    -0.38600
N1435       N  0.84139246  0.46017314  0.66577684    -0.38100
N1436       N  0.68958579  0.30244884  0.77962135    -0.38100
C1437       C  0.85547287  0.15780890  0.66279787    -0.04700
C1438       C  0.84282663  0.15437074  0.69694893    -0.01900
C1439       C  0.81508606  0.16124586  0.70519794     0.03100
C1440       C  0.79972410  0.17165451  0.67941187    -0.04700
C1441       C  0.81259851  0.17538377  0.64531265    -0.01800
C1442       C  0.84051145  0.16877792  0.63711416     0.03100
C1443       C  0.85930604  0.14488539  0.72387227     0.37800
C1444       C  0.79647057  0.18532074  0.61841431     0.37800
C1445       C  0.85332712  0.17255274  0.60206926     0.36200
C1446       C  0.80315226  0.15874935  0.74042872     0.36200
N1447       N  0.86375885  0.17575585  0.57417884    -0.38600
N1448       N  0.79354934  0.15673072  0.76851367    -0.38600
N1449       N  0.78343053  0.19308457  0.59700730    -0.38100
N1450       N  0.87267781  0.13753078  0.74529593    -0.38100
C1451       C  0.67608054  0.14234828  0.82158973    -0.04700
C1452       C  0.64071874  0.11255513  0.81688624    -0.01900
C1453       C  0.61581484  0.10072971  0.84445584     0.03100
C1454       C  0.62632789  0.11793816  0.87706877    -0.04700
C1455       C  0.66360801  0.14146225  0.88326614    -0.01800
C1456       C  0.68800649  0.15494283  0.85547293     0.03100
C1457       C  0.62869962  0.09657079  0.78299900     0.37800
C1458       C  0.67687307  0.15355343  0.91787127     0.37800
C1459       C  0.72477419  0.18388938  0.86155176     0.36200
C1460       C  0.57893435  0.07189613  0.83893721     0.36200
N1461       N  0.75387174  0.20731516  0.86677287    -0.38600
N1462       N  0.54958568  0.04864948  0.83445356    -0.38600
N1463       N  0.68769288  0.16269078  0.94551471    -0.38100
N1464       N  0.61911792  0.08373161  0.75597935    -0.38100
C1465       C  0.84151798  0.29990756  0.78346924    -0.04700
C1466       C  0.86118683  0.33732289  0.77719989    -0.01900
C1467       C  0.87782092  0.36202470  0.80484962     0.03100
C1468       C  0.87498882  0.34955928  0.83865097    -0.04700
C1469       C  0.86304620  0.31279847  0.84312285    -0.01800
C1470       C  0.84644815  0.28803434  0.81551722     0.03100
C1471       C  0.86183958  0.35069799  0.74319726     0.37800
C1472       C  0.86404274  0.29979106  0.87690316     0.37800
C1473       C  0.83222256  0.25000232  0.82071017     0.36200
C1474       C  0.89605249  0.40030682  0.79886103     0.36200
N1475       N  0.82097966  0.21967665  0.82488391    -0.38600
N1476       N  0.91092526  0.43076628  0.79331109    -0.38600
N1477       N  0.86487279  0.28935725  0.90383197    -0.38100
N1478       N  0.86269792  0.36156427  0.71605955    -0.38100
C1479       C  0.15072090  0.01783504  0.72576756    -0.04700
C1480       C  0.17240708  0.00519883  0.73940152    -0.01900
C1481       C  0.15953829  0.97957930  0.76586402     0.03100
C1482       C  0.12519984  0.96690655  0.78070067    -0.04700
C1483       C  0.10315595  0.97904085  0.76696762    -0.01800
C1484       C  0.11590720  0.00449918  0.73987224     0.03100
C1485       C  0.20868055  0.01904367  0.72652535     0.37800
C1486       C  0.06745781  0.96560267  0.78087529     0.37800
C1487       C  0.09264009  0.01589468  0.72566331     0.36200
C1488       C  0.18166791  0.96551172  0.77738910     0.36200
N1489       N  0.07407530  0.02502200  0.71429514    -0.38600
N1490       N  0.19917114  0.95416540  0.78654994    -0.38600
N1491       N  0.03882064  0.95461444  0.79179376    -0.38100
N1492       N  0.23756931  0.03005114  0.71627155    -0.38100
C1493       C  0.08061543  0.95619823  0.59507678    -0.04700
C1494       C  0.06526676  0.94033357  0.62663534    -0.01900
C1495       C  0.02785371  0.91591878  0.62912381     0.03100
C1496       C  0.00563236  0.90610701  0.59938698    -0.04700
C1497       C  0.02254815  0.91977008  0.56695534    -0.01800
C1498       C  0.05991053  0.94361416  0.56507102     0.03100
C1499       C  0.08820452  0.94754670  0.65618068     0.37800
C1500       C  0.00229081  0.91081280  0.53508337     0.37800
C1501       C  0.07797790  0.95461496  0.53211981     0.36200
C1502       C  0.01298348  0.90078778  0.66238814     0.36200
N1503       N  0.09325235  0.96316692  0.50630181    -0.38600
N1504       N  0.00140947  0.88882447  0.68902110    -0.38600
N1505       N  0.98662915  0.90405646  0.50943963    -0.38100
N1506       N  0.10616052  0.95159693  0.67964885    -0.38100
C1507       C  0.03007229  0.12139494  0.60469611    -0.04700
C1508       C  0.03828977  0.10541952  0.57721221    -0.01900
C1509       C  0.05862928  0.08939459  0.58301559     0.03100
C1510       C  0.07785095  0.09595295  0.61421285    -0.04700
C1511       C  0.07163150  0.11416764  0.64138450    -0.01800
C1512       C  0.04742831  0.12645871  0.63671303     0.03100
C1513       C  0.02596139  0.10571899  0.54265512     0.37800
C1514       C  0.08885856  0.11926876  0.67450493     0.37800
C1515       C  0.04092281  0.14458215  0.66486017     0.36200
C1516       C  0.05657256  0.06322623  0.55797173     0.36200
N1517       N  0.03676711  0.15965319  0.68745870    -0.38600
N1518       N  0.05393806  0.04159103  0.53847981    -0.38600
N1519       N  0.10214074  0.12301647  0.70114199    -0.38100
N1520       N  0.01636396  0.10638766  0.51516560    -0.38100
C1521       C  0.57191782  0.37239731  0.74819669    -0.04700
C1522       C  0.59810770  0.38109384  0.77371760    -0.01900
C1523       C  0.63459620  0.40471725  0.76667512     0.03100
C1524       C  0.64559151  0.42255529  0.73458183    -0.04700
C1525       C  0.61878440  0.41605900  0.71001438    -0.01800
C1526       C  0.58196009  0.39183405  0.71730708     0.03100
C1527       C  0.58733979  0.36553111  0.80768632     0.37800
C1528       C  0.62865399  0.43416259  0.67730069     0.37800
C1529       C  0.55451046  0.38757410  0.69335722     0.36200
C1530       C  0.66048644  0.40943373  0.79286244     0.36200
N1531       N  0.53265364  0.38484431  0.67453327    -0.38600
N1532       N  0.68061935  0.41324825  0.81422948    -0.38600
N1533       N  0.63629711  0.44843561  0.65110311    -0.38100
N1534       N  0.57871710  0.35308456  0.83463620    -0.38100
C1535       C  0.56871389  0.22502708  0.73137699    -0.04700
C1536       C  0.57296280  0.20756782  0.76011452    -0.01900
C1537       C  0.59892654  0.19736524  0.75965411     0.03100
C1538       C  0.62234839  0.20622740  0.73167180    -0.04700
C1539       C  0.61848294  0.22349296  0.70307903    -0.01800
C1540       C  0.59132705  0.23220566  0.70252103     0.03100
C1541       C  0.55196933  0.20120900  0.79112975     0.37800
C1542       C  0.64403077  0.23450670  0.67509594     0.37800
C1543       C  0.58866828  0.25081832  0.67310766     0.36200
C1544       C  0.60280896  0.17924781  0.78887684     0.36200
N1545       N  0.58680155  0.26560066  0.64947342    -0.38600
N1546       N  0.60574110  0.16482676  0.81224040    -0.38600
N1547       N  0.66448750  0.24395020  0.65280613    -0.38100
N1548       N  0.53587680  0.19689491  0.81618318    -0.38100
C1549       C  0.35982003  0.19077491  0.68617963    -0.04700
C1550       C  0.35384286  0.17208120  0.65431251    -0.01900
C1551       C  0.31870781  0.14567522  0.64376088     0.03100
C1552       C  0.28889294  0.13794101  0.66453501    -0.04700
C1553       C  0.29482807  0.15660213  0.69643161    -0.01800
C1554       C  0.33005030  0.18285121  0.70712142     0.03100
C1555       C  0.38385849  0.18053071  0.63167877     0.37800
C1556       C  0.26475730  0.14802614  0.71902716     0.37800
C1557       C  0.33566895  0.20055242  0.74036848     0.36200
C1558       C  0.31329976  0.12726027  0.61093326     0.36200
N1559       N  0.34011158  0.21460366  0.76691432    -0.38600
N1560       N  0.30902125  0.11248842  0.58481580    -0.38600
N1561       N  0.24079187  0.14125136  0.73700461    -0.38100
N1562       N  0.40776377  0.18721320  0.61365536    -0.38100
C1563       C  0.44934793  0.31145263  0.83474636    -0.04700
C1564       C  0.44905666  0.29955556  0.86844068    -0.01900
C1565       C  0.46251761  0.32447658  0.89625253     0.03100
C1566       C  0.47890686  0.36169721  0.89005609    -0.04700
C1567       C  0.47212511  0.37222904  0.85816957    -0.01800
C1568       C  0.45742750  0.34721095  0.83048661     0.03100
C1569       C  0.43835486  0.26237300  0.87402003     0.37800
C1570       C  0.48285686  0.40950909  0.85324456     0.37800
C1571       C  0.45540228  0.35964747  0.79672397     0.36200
C1572       C  0.46175094  0.31194788  0.93064244     0.36200
N1573       N  0.45398621  0.36967962  0.76976969    -0.38600
N1574       N  0.46028081  0.30165664  0.95815313    -0.38600
N1575       N  0.49124960  0.43922060  0.84929355    -0.38100
N1576       N  0.43033205  0.23289369  0.87879753    -0.38100
C1577       C  0.46255337  0.11660604  0.84737131    -0.04700
C1578       C  0.47340325  0.11543847  0.81326531    -0.01900
C1579       C  0.46490207  0.13152337  0.78641786     0.03100
C1580       C  0.44603598  0.14946819  0.79384311    -0.04700
C1581       C  0.42813952  0.14275304  0.82579331    -0.01800
C1582       C  0.43632995  0.12630923  0.85256075     0.03100
C1583       C  0.49688558  0.10144292  0.80659135     0.37800
C1584       C  0.40258854  0.15437527  0.83145639     0.37800
C1585       C  0.42054904  0.12281820  0.88620533     0.36200
C1586       C  0.47960724  0.13347119  0.75246158     0.36200
N1587       N  0.40774514  0.11985959  0.91301038    -0.38600
N1588       N  0.49155516  0.13509411  0.72544747    -0.38600
N1589       N  0.38189336  0.16332668  0.83569705    -0.38100
N1590       N  0.51581897  0.09053851  0.80114452    -0.38100
C1591       C  0.81931758  0.45885133  0.55776968    -0.04700
C1592       C  0.78257614  0.44317971  0.56668079    -0.01900
C1593       C  0.77191616  0.45735191  0.59463204     0.03100
C1594       C  0.79784828  0.48827431  0.61345055    -0.04700
C1595       C  0.83466796  0.50421558  0.60342400    -0.01800
C1596       C  0.84515253  0.48843297  0.57742338     0.03100
C1597       C  0.75572241  0.41270770  0.54672420     0.37800
C1598       C  0.86244137  0.53788750  0.61885537     0.37800
C1599       C  0.88316691  0.50229143  0.57135772     0.36200
C1600       C  0.73422673  0.43991251  0.60380796     0.36200
N1601       N  0.91343815  0.51290581  0.56715007    -0.38600
N1602       N  0.70407169  0.42597705  0.61099831    -0.38600
N1603       N  0.88484073  0.56471259  0.63091348    -0.38100
N1604       N  0.73439932  0.38826884  0.53076369    -0.38100
C1605       C  0.87602398  0.52519199  0.34848726    -0.04700
C1606       C  0.87790459  0.51569639  0.31395768    -0.01900
C1607       C  0.86409697  0.52696353  0.28712575     0.03100
C1608       C  0.84820717  0.54777218  0.29489041    -0.04700
C1609       C  0.85468360  0.56413909  0.32790571    -0.01800
C1610       C  0.86837357  0.55278424  0.35468975     0.03100
C1611       C  0.89154803  0.49207061  0.30642764     0.37800
C1612       C  0.84493836  0.59095186  0.33487020     0.37800
C1613       C  0.87113009  0.56702884  0.38917447     0.36200
C1614       C  0.86275894  0.51368370  0.25246104     0.36200
N1615       N  0.87344162  0.57857066  0.41664660    -0.38600
N1616       N  0.86173870  0.50292268  0.22486611    -0.38600
N1617       N  0.83734674  0.61248922  0.34048805    -0.38100
N1618       N  0.90260190  0.47337851  0.30023441    -0.38100
C1619       C  0.87440287  0.36109415  0.37899379    -0.04700
C1620       C  0.85322206  0.32343059  0.38398540    -0.01900
C1621       C  0.84345897  0.29946881  0.35551265     0.03100
C1622       C  0.85482239  0.31291478  0.32213666    -0.04700
C1623       C  0.88270739  0.34926192  0.31884268    -0.01800
C1624       C  0.89268732  0.37319337  0.34737142     0.03100
C1625       C  0.83936604  0.30917847  0.41764674     0.37800
C1626       C  0.89857034  0.36296892  0.28556840     0.37800
C1627       C  0.92029031  0.41077414  0.34380748     0.36200
C1628       C  0.82017144  0.26104465  0.36014269     0.36200
N1629       N  0.94249506  0.44074563  0.34121295    -0.38600
N1630       N  0.80190051  0.23037202  0.36404841    -0.38600
N1631       N  0.91137513  0.37398503  0.25905098    -0.38100
N1632       N  0.82853994  0.29744047  0.44449506    -0.38100
C1633       C  0.02569012  0.50125315  0.52147435    -0.04700
C1634       C  0.01408697  0.52647356  0.52217449    -0.01900
C1635       C  0.98122090  0.51820116  0.50664919     0.03100
C1636       C  0.95884952  0.48415474  0.49094640    -0.04700
C1637       C  0.97122994  0.45945455  0.48924129    -0.01800
C1638       C  0.00378939  0.46756305  0.50522403     0.03100
C1639       C  0.03531206  0.56083043  0.53993786     0.37800
C1640       C  0.95168777  0.42623755  0.46930605     0.37800
C1641       C  0.01517786  0.44141337  0.50397571     0.36200
C1642       C  0.97074000  0.54502248  0.50699810     0.36200
N1643       N  0.02409617  0.42044533  0.50317919    -0.38600
N1644       N  0.96269854  0.56665796  0.50709893    -0.38600
N1645       N  0.93667036  0.39978961  0.45332956    -0.38100
N1646       N  0.05154110  0.58833505  0.55405213    -0.38100
C1647       C  0.14836177  0.44866634  0.71678487    -0.04700
C1648       C  0.14045076  0.42975261  0.68511940    -0.01900
C1649       C  0.12450589  0.43814542  0.65797142     0.03100
C1650       C  0.11633829  0.46576434  0.66243438    -0.04700
C1651       C  0.11632284  0.47788480  0.69649289    -0.01800
C1652       C  0.13187758  0.46897916  0.72360800     0.03100
C1653       C  0.14969141  0.40226200  0.68034606     0.37800
C1654       C  0.10164643  0.50073118  0.70358722     0.37800
C1655       C  0.13189922  0.48184198  0.75810711     0.36200
C1656       C  0.11880671  0.41973399  0.62516643     0.36200
N1657       N  0.13093145  0.49149488  0.78571068    -0.38600
N1658       N  0.11417885  0.40475017  0.59912067    -0.38600
N1659       N  0.09003727  0.51901309  0.70943592    -0.38100
N1660       N  0.15664374  0.38000684  0.67666056    -0.38100
C1661       C  0.12142689  0.63146334  0.62707780    -0.04700
C1662       C  0.14567249  0.66861397  0.62215198    -0.01900
C1663       C  0.15740728  0.69281888  0.65059516     0.03100
C1664       C  0.14423045  0.68012827  0.68391734    -0.04700
C1665       C  0.11506698  0.64431123  0.68734472    -0.01800
C1666       C  0.10336988  0.62031690  0.65876383     0.03100
C1667       C  0.16225084  0.68115942  0.58884828     0.37800
C1668       C  0.10028230  0.63062207  0.72096464     0.37800
C1669       C  0.07463283  0.58318558  0.66234527     0.36200
C1670       C  0.18567326  0.73003870  0.64615838     0.36200
N1671       N  0.05142993  0.55359605  0.66486277    -0.38600
N1672       N  0.20839481  0.75967213  0.64259063    -0.38600
N1673       N  0.08864026  0.61946516  0.74778293    -0.38100
N1674       N  0.17564368  0.69125675  0.56236259    -0.38100
C1675       C  0.49875924  0.30651349  0.62163992    -0.04700
C1676       C  0.47281027  0.30630713  0.59984254    -0.01900
C1677       C  0.48322238  0.32941624  0.57123685     0.03100
C1678       C  0.52036197  0.35352300  0.56322355    -0.04700
C1679       C  0.54635033  0.35453991  0.58613049    -0.01800
C1680       C  0.53558677  0.33105484  0.61477045     0.03100
C1681       C  0.43483227  0.28253191  0.60739092     0.37800
C1682       C  0.58433045  0.37981754  0.58071985     0.37800
C1683       C  0.56251529  0.33326128  0.63821153     0.36200
C1684       C  0.45488710  0.32900735  0.55113958     0.36200
N1685       N  0.58399873  0.33533370  0.65713530    -0.38600
N1686       N  0.43209602  0.32841616  0.53526878    -0.38600
N1687       N  0.61471532  0.39995038  0.57652304    -0.38100
N1688       N  0.40457430  0.26376643  0.61343625    -0.38100
C1689       C  0.67410926  0.42812577  0.44987944    -0.04700
C1690       C  0.68154954  0.41208966  0.42168205    -0.01900
C1691       C  0.71717414  0.42331422  0.41265908     0.03100
C1692       C  0.74634057  0.44741788  0.43428495    -0.04700
C1693       C  0.73865511  0.46202294  0.46385484    -0.01800
C1694       C  0.70273532  0.45243400  0.47148662     0.03100
C1695       C  0.65228372  0.38324383  0.40173013     0.37800
C1696       C  0.76735223  0.48730210  0.48650585     0.37800
C1697       C  0.69539101  0.46783897  0.50146149     0.36200
C1698       C  0.72311090  0.41055772  0.37999280     0.36200
N1699       N  0.68954269  0.48006260  0.52545706    -0.38600
N1700       N  0.72699167  0.39996059  0.35386560    -0.38600
N1701       N  0.79001973  0.50778295  0.50459847    -0.38100
N1702       N  0.62938339  0.36021831  0.38566470    -0.38100
C1703       C  0.68436410  0.54295633  0.33614753    -0.04700
C1704       C  0.64818332  0.53370617  0.33169911    -0.01900
C1705       C  0.62360251  0.51929146  0.35934726     0.03100
C1706       C  0.63456360  0.51264620  0.39115773    -0.04700
C1707       C  0.67196059  0.52898672  0.39740548    -0.01800
C1708       C  0.69670259  0.54380079  0.36990209     0.03100
C1709       C  0.63502095  0.53471157  0.29787190     0.37800
C1710       C  0.68504475  0.52862875  0.43141672     0.37800
C1711       C  0.73463686  0.55758578  0.37585389     0.36200
C1712       C  0.58636302  0.50915419  0.35459245     0.36200
N1713       N  0.76486725  0.56855418  0.38085612    -0.38600
N1714       N  0.55665828  0.50123813  0.35109241    -0.38600
N1715       N  0.69586302  0.52902928  0.45858572    -0.38100
N1716       N  0.62435862  0.53527129  0.27087346    -0.38100
C1717       C  0.47148365  0.35019408  0.34712770    -0.04700
C1718       C  0.48473851  0.36302828  0.31384653    -0.01900
C1719       C  0.47524804  0.33868162  0.28562667     0.03100
C1720       C  0.45214853  0.30119398  0.29058023    -0.04700
C1721       C  0.43264506  0.29002849  0.32169098    -0.01800
C1722       C  0.44259787  0.31422355  0.35007143     0.03100
C1723       C  0.51044077  0.40103479  0.30921684     0.37800
C1724       C  0.40380298  0.25288785  0.32504126     0.37800
C1725       C  0.42576661  0.30088060  0.38307630     0.36200
C1726       C  0.49212291  0.35214927  0.25262367     0.36200
N1727       N  0.41228721  0.29008317  0.40940836    -0.38600
N1728       N  0.50574269  0.36321909  0.22638857    -0.38600
N1729       N  0.38067114  0.22326293  0.32742842    -0.38100
N1730       N  0.53088477  0.43132228  0.30528290    -0.38100
C1731       C  0.48612004  0.52643508  0.50888221    -0.04700
C1732       C  0.50964093  0.52199206  0.53040402    -0.01900
C1733       C  0.51771515  0.49469755  0.52322782     0.03100
C1734       C  0.50383294  0.47222455  0.49338902    -0.04700
C1735       C  0.48122358  0.47744316  0.47129620    -0.01800
C1736       C  0.47236119  0.50408529  0.47897554     0.03100
C1737       C  0.52499726  0.54490393  0.56060797     0.37800
C1738       C  0.46782305  0.45615353  0.43991546     0.37800
C1739       C  0.44968750  0.50908382  0.45521600     0.36200
C1740       C  0.53920386  0.48882913  0.54774142     0.36200
N1741       N  0.43153849  0.51299058  0.43629952    -0.38600
N1742       N  0.55618712  0.48410860  0.56742709    -0.38600
N1743       N  0.45714638  0.43917666  0.41487146    -0.38100
N1744       N  0.53754059  0.56340519  0.58452007    -0.38100
C1745       C  0.22855509  0.51575177  0.57230665    -0.04700
C1746       C  0.25097572  0.52537334  0.60130389    -0.01900
C1747       C  0.28827173  0.54130636  0.59734787     0.03100
C1748       C  0.30361494  0.54314406  0.56434066    -0.04700
C1749       C  0.27986101  0.52802411  0.53577483    -0.01800
C1750       C  0.24240766  0.51363502  0.54002127     0.03100
C1751       C  0.23550682  0.51901790  0.63557835     0.37800
C1752       C  0.29344507  0.52738571  0.50185807     0.37800
C1753       C  0.21805598  0.49480216  0.51162549     0.36200
C1754       C  0.31009910  0.55798027  0.62777379     0.36200
N1755       N  0.19857768  0.47883082  0.48926780    -0.38600
N1756       N  0.32631029  0.57134956  0.65257830    -0.38600
N1757       N  0.30415805  0.52697297  0.47466821    -0.38100
N1758       N  0.22314394  0.51396008  0.66280247    -0.38100
C1759       C  0.51765147  0.64788372  0.65576769    -0.04700
C1760       C  0.54371336  0.68472537  0.65131798    -0.01900
C1761       C  0.55394837  0.70912500  0.67950422     0.03100
C1762       C  0.53720110  0.69719218  0.71177303    -0.04700
C1763       C  0.51729645  0.65964392  0.71756585    -0.01800
C1764       C  0.50788481  0.63511688  0.68958150     0.03100
C1765       C  0.55710185  0.69830368  0.61733216     0.37800
C1766       C  0.50320391  0.64606937  0.75137538     0.37800
C1767       C  0.48601352  0.59668867  0.69507873     0.36200
C1768       C  0.58019171  0.74699212  0.67511607     0.36200
N1769       N  0.46881949  0.56598857  0.69939623    -0.38600
N1770       N  0.60152584  0.77718339  0.67206059    -0.38600
N1771       N  0.49184056  0.63495622  0.77828415    -0.38100
N1772       N  0.56785994  0.70932011  0.59025174    -0.38100
C1773       C  0.35684987  0.47808789  0.61761511    -0.04700
C1774       C  0.31937239  0.46245046  0.61206126    -0.01900
C1775       C  0.29513009  0.44843656  0.64000169     0.03100
C1776       C  0.30778871  0.44817188  0.67335662    -0.04700
C1777       C  0.34357872  0.45592761  0.67682243    -0.01800
C1778       C  0.36803574  0.47097595  0.64907120     0.03100
C1779       C  0.30575010  0.46300617  0.57834053     0.37800
C1780       C  0.35639890  0.45227682  0.70989194     0.37800
C1781       C  0.40525349  0.48092577  0.65334040     0.36200
C1782       C  0.25762799  0.43732120  0.63505891     0.36200
N1783       N  0.43493107  0.48865729  0.65660672    -0.38600
N1784       N  0.22781697  0.42876931  0.63095715    -0.38600
N1785       N  0.36662775  0.44930076  0.73627580    -0.38100
N1786       N  0.29461687  0.46287320  0.55139060    -0.38100
C1787       C  0.42159379  0.74896275  0.56102757    -0.04700
C1788       C  0.40279659  0.72263534  0.58611727    -0.01900
C1789       C  0.41115514  0.69588244  0.59226589     0.03100
C1790       C  0.43699372  0.69319670  0.57162430    -0.04700
C1791       C  0.45352867  0.71798619  0.54437368    -0.01800
C1792       C  0.44621461  0.74594050  0.53950236     0.03100
C1793       C  0.37387553  0.72238367  0.60553575     0.37800
C1794       C  0.47747204  0.71469363  0.52046462     0.37800
C1795       C  0.46459191  0.77197766  0.51265907     0.36200
C1796       C  0.39280253  0.67166813  0.62052322     0.36200
N1797       N  0.47921093  0.79270888  0.49118590    -0.38600
N1798       N  0.37755167  0.65258566  0.64298208    -0.38600
N1799       N  0.49661500  0.71253143  0.50108706    -0.38100
N1800       N  0.35062080  0.72134675  0.62121560    -0.38100
C1801       C  0.24166637  0.66960174  0.57270649    -0.04700
C1802       C  0.26035722  0.68874882  0.54334125    -0.01900
C1803       C  0.28395782  0.72623189  0.54544371     0.03100
C1804       C  0.28902151  0.74504448  0.57680856    -0.04700
C1805       C  0.27032572  0.72585264  0.60626137    -0.01800
C1806       C  0.24603172  0.68845532  0.60401240     0.03100
C1807       C  0.25590912  0.66986529  0.51093585     0.37800
C1808       C  0.27733064  0.74438797  0.63922545     0.37800
C1809       C  0.22372991  0.66981319  0.63332575     0.36200
C1810       C  0.30510347  0.74445387  0.51563860     0.36200
N1811       N  0.20522946  0.65466156  0.65622427    -0.38600
N1812       N  0.32144343  0.75688528  0.49097941    -0.38600
N1813       N  0.28326511  0.75910883  0.66556599    -0.38100
N1814       N  0.25247667  0.65526893  0.48486208    -0.38100
C1815       C  0.53229979  0.85963703  0.68209203    -0.04700
C1816       C  0.53709512  0.85094425  0.64802722    -0.01900
C1817       C  0.52337957  0.86055233  0.61987221     0.03100
C1818       C  0.50524589  0.87941437  0.62561814    -0.04700
C1819       C  0.50913064  0.89585215  0.65829114    -0.01800
C1820       C  0.52113097  0.88490672  0.68678206     0.03100
C1821       C  0.55412286  0.83011015  0.64205863     0.37800
C1822       C  0.49829617  0.92219485  0.66284626     0.37800
C1823       C  0.51768113  0.89641006  0.72101468     0.36200
C1824       C  0.52580084  0.84878218  0.58550987     0.36200
N1825       N  0.51453557  0.90544567  0.74825938    -0.38600
N1826       N  0.52815730  0.83961162  0.55808306    -0.38600
N1827       N  0.48991586  0.94343758  0.66624182    -0.38100
N1828       N  0.56779966  0.81359789  0.63690704    -0.38100
C1829       C  0.34240695  0.86921724  0.66759317    -0.04700
C1830       C  0.30649306  0.86147260  0.66511140    -0.01900
C1831       C  0.28352558  0.84883478  0.69419030     0.03100
C1832       C  0.29637744  0.84447549  0.72600585    -0.04700
C1833       C  0.33388358  0.86044430  0.72992188    -0.01800
C1834       C  0.35653559  0.87105845  0.70076189     0.03100
C1835       C  0.29204036  0.86293470  0.63215411     0.37800
C1836       C  0.34912224  0.86486497  0.76373648     0.37800
C1837       C  0.39380652  0.88105259  0.70475590     0.36200
C1838       C  0.24599719  0.83827553  0.69112904     0.36200
N1839       N  0.42331139  0.88838753  0.70832049    -0.38600
N1840       N  0.21608285  0.83001986  0.68886569    -0.38600
N1841       N  0.36194701  0.86998547  0.79069719    -0.38100
N1842       N  0.28042830  0.86424330  0.60590848    -0.38100
C1843       C  0.63681679  0.16855770  0.54884467    -0.04700
C1844       C  0.63447491  0.14285507  0.57194256    -0.01900
C1845       C  0.65869860  0.15303663  0.59984937     0.03100
C1846       C  0.68466013  0.19003577  0.60707212    -0.04700
C1847       C  0.68698044  0.21593185  0.58355335    -0.01800
C1848       C  0.66306569  0.20522125  0.55490267     0.03100
C1849       C  0.60582353  0.10558079  0.56774779     0.37800
C1850       C  0.71398910  0.25364699  0.58836198     0.37800
C1851       C  0.66581503  0.23198650  0.53124033     0.36200
C1852       C  0.65723061  0.12445292  0.62009800     0.36200
N1853       N  0.66810988  0.25334799  0.51229973    -0.38600
N1854       N  0.65586148  0.10150186  0.63605547    -0.38600
N1855       N  0.73561295  0.28379041  0.59206349    -0.38100
N1856       N  0.58254587  0.07597374  0.56515568    -0.38100
C1857       C  0.75408323  0.30877376  0.43250666    -0.04700
C1858       C  0.73765942  0.29499607  0.39979223    -0.01900
C1859       C  0.71561424  0.25786292  0.39412850     0.03100
C1860       C  0.70526929  0.23420613  0.42176364    -0.04700
C1861       C  0.72395643  0.24656027  0.45314290    -0.01800
C1862       C  0.74801808  0.28384106  0.45881780     0.03100
C1863       C  0.74082783  0.31839533  0.37199767     0.37800
C1864       C  0.71916924  0.22087702  0.47910369     0.37800
C1865       C  0.76609007  0.29597705  0.49175727     0.36200
C1866       C  0.70266507  0.24362471  0.35973309     0.36200
N1867       N  0.78042314  0.30544350  0.51811481    -0.38600
N1868       N  0.69260908  0.23215408  0.33236107    -0.38600
N1869       N  0.71602913  0.20034681  0.49949337    -0.38100
N1870       N  0.74282134  0.33663108  0.34970913    -0.38100
C1871       C  0.53735701  0.29343319  0.43514476    -0.04700
C1872       C  0.55559103  0.29104473  0.46395659    -0.01900
C1873       C  0.56508070  0.26443920  0.46532602     0.03100
C1874       C  0.55861007  0.24137333  0.43673378    -0.04700
C1875       C  0.54088207  0.24447378  0.40744403    -0.01800
C1876       C  0.52900974  0.26924369  0.40746596     0.03100
C1877       C  0.56672525  0.31750244  0.49144497     0.37800
C1878       C  0.53533516  0.22292140  0.37665610     0.37800
C1879       C  0.50803724  0.26978896  0.37892089     0.36200
C1880       C  0.58343050  0.26248324  0.49548771     0.36200
N1881       N  0.49064064  0.26942999  0.35636539    -0.38600
N1882       N  0.59791923  0.26101640  0.51970628    -0.38600
N1883       N  0.53174706  0.20624631  0.35193321    -0.38100
N1884       N  0.57643414  0.33880682  0.51329801    -0.38100
C1885       C  0.51458833  0.02887033  0.48576851    -0.04700
C1886       C  0.52664952  0.00934996  0.50435907    -0.01900
C1887       C  0.50186226  0.97776300  0.52212530     0.03100
C1888       C  0.46400528  0.96298618  0.51938229    -0.04700
C1889       C  0.45184021  0.98220857  0.50038891    -0.01800
C1890       C  0.47680699  0.01489936  0.48402590     0.03100
C1891       C  0.56477549  0.02181279  0.50568255     0.37800
C1892       C  0.41352096  0.96791651  0.49667181     0.37800
C1893       C  0.46322056  0.03331754  0.46398355     0.36200
C1894       C  0.51577211  0.96118443  0.54441393     0.36200
N1895       N  0.45226298  0.04789159  0.44798906    -0.38600
N1896       N  0.52712291  0.94834765  0.56234221    -0.38600
N1897       N  0.38295872  0.95663284  0.49372511    -0.38100
N1898       N  0.59513581  0.03151311  0.50663135    -0.38100
C1899       C  0.68981296  0.14937950  0.28066590    -0.04700
C1900       C  0.65244016  0.13242698  0.27415749    -0.01900
C1901       C  0.62748003  0.11709573  0.30145898     0.03100
C1902       C  0.63942611  0.11657455  0.33511442    -0.04700
C1903       C  0.67560226  0.12560060  0.33928446    -0.01800
C1904       C  0.70062067  0.14186041  0.31209896     0.03100
C1905       C  0.63954874  0.13195184  0.23986922     0.37800
C1906       C  0.68815141  0.12202638  0.37251961     0.37800
C1907       C  0.73782729  0.15184594  0.31658975     0.36200
C1908       C  0.58986394  0.10475991  0.29546473     0.36200
N1909       N  0.76744969  0.15938638  0.31980473    -0.38600
N1910       N  0.55999355  0.09529982  0.29027894    -0.38600
N1911       N  0.69827503  0.11921929  0.39903207    -0.38100
N1912       N  0.62890610  0.13051897  0.21239167    -0.38100
C1913       C  0.44637480  0.13523127  0.32507854    -0.04700
C1914       C  0.44531880  0.14584625  0.35934091    -0.01900
C1915       C  0.46212029  0.13770206  0.38579061     0.03100
C1916       C  0.47916644  0.11804201  0.37793113    -0.04700
C1917       C  0.47179713  0.09998758  0.34582540    -0.01800
C1918       C  0.45585622  0.10889366  0.31918780     0.03100
C1919       C  0.43021181  0.16827365  0.36657990     0.37800
C1920       C  0.48311794  0.07424858  0.33965611     0.37800
C1921       C  0.45361671  0.09440205  0.28489903     0.36200
C1922       C  0.46597332  0.15375540  0.41961810     0.36200
N1923       N  0.45198383  0.08287731  0.25753812    -0.38600
N1924       N  0.46925344  0.16688210  0.44647940    -0.38600
N1925       N  0.49192613  0.05347716  0.33504022    -0.38100
N1926       N  0.41799698  0.18602039  0.37245406    -0.38100
C1927       C  0.13792150  0.16214414  0.28767248    -0.04700
C1928       C  0.11933661  0.12540415  0.27727555    -0.01900
C1929       C  0.13271382  0.11300838  0.25003372     0.03100
C1930       C  0.16443441  0.13734330  0.23178734    -0.04700
C1931       C  0.18389225  0.17380119  0.24384357    -0.01800
C1932       C  0.17034667  0.18603124  0.27062108     0.03100
C1933       C  0.08725060  0.09996135  0.29576480     0.37800
C1934       C  0.21881068  0.19917865  0.22942630     0.37800
C1935       C  0.18985695  0.22391854  0.28041608     0.36200
C1936       C  0.11436203  0.07493215  0.24191512     0.36200
N1937       N  0.20527452  0.25409330  0.28821063    -0.38600
N1938       N  0.10006869  0.04432795  0.23630735    -0.38600
N1939       N  0.24663570  0.21947217  0.21797020    -0.38100
N1940       N  0.06168734  0.07971753  0.31063902    -0.38100
C1941       C  0.97660924  0.18839260  0.51783609    -0.04700
C1942       C  0.96384163  0.17530402  0.48419754    -0.01900
C1943       C  0.98821272  0.18513271  0.45631749     0.03100
C1944       C  0.02572008  0.20739051  0.46199359    -0.04700
C1945       C  0.03708671  0.22651515  0.49366447    -0.01800
C1946       C  0.01268073  0.21714073  0.52150066     0.03100
C1947       C  0.92572119  0.15015173  0.47867852     0.37800
C1948       C  0.07433956  0.25506378  0.49778361     0.37800
C1949       C  0.02556577  0.23518773  0.55444950     0.36200
C1950       C  0.97457424  0.17105310  0.42229862     0.36200
N1951       N  0.03590924  0.24987288  0.58065177    -0.38600
N1952       N  0.96312498  0.16034707  0.39511607    -0.38600
N1953       N  0.10402521  0.27809151  0.50078989    -0.38100
N1954       N  0.89529906  0.13012379  0.47426087    -0.38100
C1955       C  0.18815776  0.21178243  0.50202125    -0.04700
C1956       C  0.17472419  0.21087383  0.53548317    -0.01900
C1957       C  0.18309912  0.19523320  0.56286638     0.03100
C1958       C  0.20384529  0.17906734  0.55662726    -0.04700
C1959       C  0.22324330  0.18704929  0.52540958    -0.01800
C1960       C  0.21537740  0.20323867  0.49814501     0.03100
C1961       C  0.14962362  0.22310616  0.54101563     0.37800
C1962       C  0.25010692  0.17694759  0.52089163     0.37800
C1963       C  0.23231598  0.20716419  0.46503022     0.36200
C1964       C  0.16812538  0.19353884  0.59662792     0.36200
N1965       N  0.24584266  0.21028904  0.43858867    -0.38600
N1966       N  0.15655605  0.19264447  0.62368251    -0.38600
N1967       N  0.27177138  0.16914744  0.51751387    -0.38100
N1968       N  0.12944373  0.23264920  0.54563410    -0.38100
C1969       C  0.18823373  0.50160244  0.39365613    -0.04700
C1970       C  0.21356161  0.52850626  0.41654974    -0.01900
C1971       C  0.20177213  0.54024140  0.44554841     0.03100
C1972       C  0.16454923  0.52612965  0.45160256    -0.04700
C1973       C  0.13950747  0.49998511  0.42845857    -0.01800
C1974       C  0.15092856  0.48620665  0.40142122     0.03100
C1975       C  0.25178901  0.54390186  0.41093677     0.37800
C1976       C  0.10146040  0.48767476  0.43188016     0.37800
C1977       C  0.12359118  0.45442751  0.38302045     0.36200
C1978       C  0.22795415  0.56506961  0.47034072     0.36200
N1979       N  0.10171877  0.42892325  0.36864975    -0.38600
N1980       N  0.24895465  0.58428632  0.49041354    -0.38600
N1981       N  0.07126741  0.47829656  0.43434086    -0.38100
N1982       N  0.28236801  0.55644484  0.40657361    -0.38100
C1983       C  0.15601460  0.29914229  0.35241944    -0.04700
C1984       C  0.14564162  0.30306064  0.31897829    -0.01900
C1985       C  0.15246589  0.33687008  0.30772757     0.03100
C1986       C  0.17013016  0.36736758  0.32950700    -0.04700
C1987       C  0.18066920  0.36352774  0.36289502    -0.01800
C1988       C  0.17412686  0.32975789  0.37405951     0.03100
C1989       C  0.12915509  0.27243197  0.29540859     0.37800
C1990       C  0.19738486  0.39426845  0.38632798     0.37800
C1991       C  0.18557649  0.32647948  0.40801724     0.36200
C1992       C  0.14243040  0.34050681  0.27324645     0.36200
N1993       N  0.19498555  0.32390440  0.43499651    -0.38600
N1994       N  0.13442604  0.34348122  0.24575561    -0.38600
N1995       N  0.21053498  0.41872389  0.40506496    -0.38100
N1996       N  0.11615408  0.24801783  0.27662289    -0.38100
C1997       C  0.29815789  0.45725491  0.21641730    -0.04700
C1998       C  0.33556625  0.48046757  0.22226127    -0.01900
C1999       C  0.36023539  0.48989157  0.19475642     0.03100
C2000       C  0.34805900  0.47547790  0.16133263    -0.04700
C2001       C  0.31209320  0.44672732  0.15749915    -0.01800
C2002       C  0.28725658  0.43773741  0.18489442     0.03100
C2003       C  0.34876036  0.49705503  0.25573155     0.37800
C2004       C  0.29964193  0.42897074  0.12436049     0.37800
C2005       C  0.25001868  0.40938607  0.18022263     0.36200
C2006       C  0.39780561  0.51710153  0.20020188     0.36200
N2007       N  0.22032838  0.38656255  0.17663903    -0.38600
N2008       N  0.42762076  0.53902383  0.20496460    -0.38600
N2009       N  0.28975916  0.41476646  0.09789799    -0.38100
N2010       N  0.35968040  0.51008493  0.28244635    -0.38100
C2011       C  0.13349664  0.45039941  0.18063174    -0.04700
C2012       C  0.10486731  0.45685073  0.18510014    -0.01900
C2013       C  0.09390614  0.46997564  0.15746324     0.03100
C2014       C  0.11205854  0.47759353  0.12558976    -0.04700
C2015       C  0.13475463  0.46355794  0.11935557    -0.01800
C2016       C  0.14584236  0.45058707  0.14689899     0.03100
C2017       C  0.08976255  0.45440440  0.21892995     0.37800
C2018       C  0.14930170  0.46512746  0.08540834     0.37800
C2019       C  0.17278735  0.44075309  0.14114713     0.36200
C2020       C  0.06536197  0.47769244  0.16226152     0.36200
N2021       N  0.19450826  0.43324706  0.13647803    -0.38600
N2022       N  0.04233738  0.48353908  0.16587516    -0.38600
N2023       N  0.16079704  0.46598202  0.05832746    -0.38100
N2024       N  0.07773057  0.45263845  0.24592613    -0.38100
C2025       C  0.01361113  0.86372066  0.28186136    -0.04700
C2026       C  0.02981904  0.87764219  0.24978141    -0.01900
C2027       C  0.00908309  0.86608593  0.21899868     0.03100
C2028       C  0.97081671  0.84289124  0.21957809    -0.04700
C2029       C  0.95436260  0.83028265  0.25177905    -0.01800
C2030       C  0.97535458  0.83998999  0.28237844     0.03100
C2031       C  0.06835683  0.90276110  0.24793692     0.37800
C2032       C  0.91595739  0.80448076  0.25321683     0.37800
C2033       C  0.95677389  0.82469503  0.31435446     0.36200
C2034       C  0.02831005  0.87642517  0.18669464     0.36200
N2035       N  0.94127485  0.81175058  0.33938379    -0.38600
N2036       N  0.04491840  0.88423242  0.16163494    -0.38600
N2037       N  0.88540226  0.78357600  0.25430014    -0.38100
N2038       N  0.09903259  0.92305131  0.24633021    -0.38100
C2039       C  0.10006979  0.01731261  0.39801501    -0.04700
C2040       C  0.12009951  0.04283881  0.37229879    -0.01900
C2041       C  0.13367122  0.07996387  0.37865842     0.03100
C2042       C  0.12805502  0.09167356  0.41084245    -0.04700
C2043       C  0.11227483  0.06688169  0.43735046    -0.01800
C2044       C  0.09467729  0.03001136  0.43006532     0.03100
C2045       C  0.12655054  0.03133223  0.33929016     0.37800
C2046       C  0.11502568  0.07997042  0.47240099     0.37800
C2047       C  0.06833644  0.00575068  0.45464852     0.36200
C2048       C  0.15494430  0.10612916  0.35285847     0.36200
N2049       N  0.04664942  0.98671626  0.47390393    -0.38600
N2050       N  0.17293468  0.12695118  0.33256368    -0.38600
N2051       N  0.11878997  0.09158381  0.50001289    -0.38100
N2052       N  0.13169113  0.02230490  0.31284377    -0.38100
C2053       C  0.20417146  0.01949707  0.51300433    -0.04700
C2054       C  0.19489679  0.98326484  0.51617750    -0.01900
C2055       C  0.18018924  0.95919774  0.48776174     0.03100
C2056       C  0.17367069  0.97087602  0.45637737    -0.04700
C2057       C  0.18992992  0.00838042  0.45145409    -0.01800
C2058       C  0.20489335  0.03253070  0.47976000     0.03100
C2059       C  0.19585725  0.96951241  0.54956900     0.37800
C2060       C  0.18852211  0.02210431  0.41820212     0.37800
C2061       C  0.21776922  0.07041934  0.47532987     0.36200
C2062       C  0.16942371  0.92173648  0.49136551     0.36200
N2063       N  0.22781712  0.10055232  0.47150599    -0.38600
N2064       N  0.16098436  0.89186145  0.49406493    -0.38600
N2065       N  0.18787244  0.03337876  0.39167795    -0.38100
N2066       N  0.19637511  0.95844491  0.57625416    -0.38100
C2067       C  0.01199479  0.80947805  0.49286786    -0.04700
C2068       C  0.97728092  0.77871112  0.48835585    -0.01900
C2069       C  0.95161311  0.76789104  0.51514668     0.03100
C2070       C  0.96077102  0.78733757  0.54663652    -0.04700
C2071       C  0.99774072  0.81180765  0.55356402    -0.01800
C2072       C  0.02303237  0.82364120  0.52651327     0.03100
C2073       C  0.96673074  0.76051001  0.45525194     0.37800
C2074       C  0.00968514  0.82689140  0.58773874     0.37800
C2075       C  0.05973756  0.85283507  0.53262467     0.36200
C2076       C  0.91520217  0.73800383  0.50980592     0.36200
N2077       N  0.08885221  0.87636630  0.53757171    -0.38600
N2078       N  0.88615468  0.71401980  0.50568975    -0.38600
N2079       N  0.01956368  0.83862322  0.61505716    -0.38100
N2080       N  0.95831950  0.74580327  0.42888415    -0.38100
C2081       C  0.34445740  0.82389260  0.45089071    -0.04700
C2082       C  0.31516788  0.83005837  0.44644641    -0.01900
C2083       C  0.29111928  0.81502302  0.41818293     0.03100
C2084       C  0.29612274  0.79495571  0.39248940    -0.04700
C2085       C  0.32463472  0.78834474  0.39639811    -0.01800
C2086       C  0.34882589  0.80292137  0.42492911     0.03100
C2087       C  0.30967698  0.85310134  0.46997619     0.37800
C2088       C  0.32845756  0.76553324  0.37128446     0.37800
C2089       C  0.37804491  0.79598617  0.42719459     0.36200
C2090       C  0.26056029  0.82001043  0.41550176     0.36200
N2091       N  0.40138870  0.79040898  0.42873031    -0.38600
N2092       N  0.23588848  0.82347360  0.41355882    -0.38600
N2093       N  0.33123731  0.74693162  0.35151507    -0.38100
N2094       N  0.30497224  0.87138772  0.48850834    -0.38100
C2095       C  0.21453097  0.64637655  0.27455889    -0.04700
C2096       C  0.19781162  0.62456436  0.24474640    -0.01900
C2097       C  0.18888805  0.58844695  0.24338684     0.03100
C2098       C  0.20025907  0.57482510  0.26962156    -0.04700
C2099       C  0.21859223  0.59675290  0.29841363    -0.01800
C2100       C  0.22421440  0.63173514  0.30172153     0.03100
C2101       C  0.19230045  0.63960736  0.21406785     0.37800
C2102       C  0.23438701  0.58446994  0.32332338     0.37800
C2103       C  0.24259676  0.65337073  0.33192450     0.36200
C2104       C  0.16938235  0.56564647  0.21416405     0.36200
N2105       N  0.25717952  0.67046301  0.35612471    -0.38600
N2106       N  0.15358157  0.54740618  0.19097699    -0.38600
N2107       N  0.24804086  0.57541711  0.34278653    -0.38100
N2108       N  0.18963290  0.65254499  0.18940884    -0.38100
C2109       C  0.13480593  0.84370943  0.34802533    -0.04700
C2110       C  0.12322865  0.81360292  0.32592283    -0.01900
C2111       C  0.14818516  0.80463846  0.31276222     0.03100
C2112       C  0.18514447  0.82494912  0.32227883    -0.04700
C2113       C  0.19686216  0.85543358  0.34395770    -0.01800
C2114       C  0.17191042  0.86461030  0.35688707     0.03100
C2115       C  0.08565209  0.79226019  0.31579334     0.37800
C2116       C  0.23449894  0.87701532  0.35374850     0.37800
C2117       C  0.18443427  0.89493283  0.38054083     0.36200
C2118       C  0.13579055  0.77519552  0.28805866     0.36200
N2119       N  0.19470972  0.91907681  0.39950487    -0.38600
N2120       N  0.12554122  0.75184412  0.26816848    -0.38600
N2121       N  0.26454188  0.89436656  0.36147185    -0.38100
N2122       N  0.05566544  0.77513766  0.30782555    -0.38100
C2123       C  0.14017025  0.69226212  0.21567017    -0.04700
C2124       C  0.13384080  0.70212814  0.18322785    -0.01900
C2125       C  0.11992818  0.67662122  0.15586128     0.03100
C2126       C  0.11156642  0.64091442  0.16122088    -0.04700
C2127       C  0.10929157  0.62945002  0.19537481    -0.01800
C2128       C  0.12345954  0.65503578  0.22269250     0.03100
C2129       C  0.14355608  0.73903535  0.17770234     0.37800
C2130       C  0.09566517  0.59174676  0.20187023     0.37800
C2131       C  0.12460659  0.64312902  0.25696303     0.36200
C2132       C  0.11797825  0.68820199  0.12167111     0.36200
N2133       N  0.12556056  0.63346542  0.28423779    -0.38600
N2134       N  0.11641289  0.69753121  0.09441139    -0.38600
N2135       N  0.08481663  0.56167445  0.20710891    -0.38100
N2136       N  0.15093189  0.76841959  0.17350314    -0.38100
C2137       C  0.35900715  0.87387007  0.12534764    -0.04700
C2138       C  0.37102315  0.89154462  0.15763934    -0.01900
C2139       C  0.34686532  0.88171729  0.18565678     0.03100
C2140       C  0.30980147  0.85613598  0.18087064    -0.04700
C2141       C  0.29697543  0.84545332  0.14689718    -0.01800
C2142       C  0.32137248  0.85344691  0.11934352     0.03100
C2143       C  0.40867329  0.91880735  0.16229031     0.37800
C2144       C  0.25849171  0.82410388  0.14079293     0.37800
C2145       C  0.30743964  0.83795464  0.08572520     0.36200
C2146       C  0.36101869  0.89475492  0.21988279     0.36200
N2147       N  0.29592446  0.82553045  0.05895997    -0.38600
N2148       N  0.37253811  0.90500379  0.24717217    -0.38600
N2149       N  0.22777242  0.80735005  0.13588166    -0.38100
N2150       N  0.43860592  0.94100782  0.16579897    -0.38100
C2151       C  0.86399303  0.03144371  0.23210737    -0.04700
C2152       C  0.82926072  0.01852757  0.24622187    -0.01900
C2153       C  0.81672448  0.99456059  0.27422000     0.03100
C2154       C  0.83898165  0.98366482  0.28993007    -0.04700
C2155       C  0.87496327  0.99949209  0.27813158    -0.01800
C2156       C  0.88699909  0.02216412  0.24880492     0.03100
C2157       C  0.80657252  0.03106521  0.23264035     0.37800
C2158       C  0.90071662  0.99574838  0.29830281     0.37800
C2159       C  0.92293173  0.03546743  0.23564756     0.36200
C2160       C  0.78082433  0.98189943  0.28750983     0.36200
N2161       N  0.95163546  0.04593804  0.22515624    -0.38600
N2162       N  0.75239348  0.97221084  0.29835485    -0.38600
N2163       N  0.92177038  0.99410565  0.31501084    -0.38100
N2164       N  0.78870339  0.04133348  0.22189805    -0.38100
C2165       C  0.91229858  0.03370161  0.41443982    -0.04700
C2166       C  0.92084146  0.05676772  0.38596462    -0.01900
C2167       C  0.95722892  0.08158629  0.37772226     0.03100
C2168       C  0.98518223  0.08378443  0.39804820    -0.04700
C2169       C  0.97666878  0.05911600  0.42473775    -0.01800
C2170       C  0.94083681  0.03615041  0.43431894     0.03100
C2171       C  0.89262325  0.05556623  0.36513017     0.37800
C2172       C  0.00499783  0.05692483  0.44231057     0.37800
C2173       C  0.93378137  0.01565916  0.46546182     0.36200
C2174       C  0.96571559  0.10479580  0.34839811     0.36200
N2175       N  0.92784866  0.99895763  0.49003543    -0.38600
N2176       N  0.97231715  0.12319456  0.32493117    -0.38600
N2177       N  0.02737116  0.05495215  0.45630493    -0.38100
N2178       N  0.87039530  0.05523542  0.34853742    -0.38100
C2179       C  0.95534229  0.87344183  0.40258074    -0.04700
C2180       C  0.95306571  0.89200606  0.37422168    -0.01900
C2181       C  0.92379379  0.89737997  0.37094508     0.03100
C2182       C  0.89900388  0.88840139  0.39823663    -0.04700
C2183       C  0.90207252  0.87018461  0.42707060    -0.01800
C2184       C  0.92887178  0.86109625  0.42808980     0.03100
C2185       C  0.98220423  0.90803060  0.34955016     0.37800
C2186       C  0.87952930  0.86272071  0.45707146     0.37800
C2187       C  0.93043005  0.84062203  0.45642430     0.36200
C2188       C  0.92051925  0.91339347  0.33987765     0.36200
N2189       N  0.93156824  0.82413602  0.47889117    -0.38600
N2190       N  0.91805280  0.92545273  0.31451259    -0.38600
N2191       N  0.86234302  0.85841677  0.48132459    -0.38100
N2192       N  0.00547132  0.92182035  0.33000816    -0.38100
C2193       C  0.78451693  0.97975337  0.50185756    -0.04700
C2194       C  0.78235260  0.96666953  0.53537923    -0.01900
C2195       C  0.79414044  0.99062433  0.56394394     0.03100
C2196       C  0.80993475  0.02795808  0.55883363    -0.04700
C2197       C  0.80413200  0.03926041  0.52699035    -0.01800
C2198       C  0.79240666  0.01556858  0.49823303     0.03100
C2199       C  0.77088985  0.92918485  0.54023424     0.37800
C2200       C  0.81282627  0.07612707  0.52350732     0.37800
C2201       C  0.79346284  0.02967743  0.46448340     0.36200
C2202       C  0.79208392  0.97706844  0.59811246     0.36200
N2203       N  0.79476203  0.04119760  0.43757329    -0.38600
N2204       N  0.78963383  0.96599060  0.62543160    -0.38600
N2205       N  0.81938813  0.10544765  0.52092024    -0.38100
N2206       N  0.76206055  0.89939510  0.54442601    -0.38100
C2207       C  0.77423399  0.81443633  0.45500754    -0.04700
C2208       C  0.75787520  0.80836469  0.48775229    -0.01900
C2209       C  0.76726744  0.79241519  0.51402503     0.03100
C2210       C  0.79225280  0.78132681  0.50737027    -0.04700
C2211       C  0.80082964  0.77893971  0.47270273    -0.01800
C2212       C  0.79179117  0.79537178  0.44646448     0.03100
C2213       C  0.73295183  0.82050373  0.49490363     0.37800
C2214       C  0.82143742  0.76205366  0.46457415     0.37800
C2215       C  0.80374619  0.79555765  0.41163768     0.36200
C2216       C  0.75442544  0.79133009  0.54867888     0.36200
N2217       N  0.81323731  0.79555382  0.38381432    -0.38600
N2218       N  0.74425616  0.79052645  0.57636927    -0.38600
N2219       N  0.83765604  0.74833298  0.45801227    -0.38100
N2220       N  0.71278952  0.82988393  0.50047511    -0.38100
C2221       C  0.48560589  0.69336645  0.39334462    -0.04700
C2222       C  0.50662437  0.68012982  0.40724047    -0.01900
C2223       C  0.49230706  0.65270547  0.43198256     0.03100
C2224       C  0.45769206  0.63989155  0.44629196    -0.04700
C2225       C  0.43713472  0.65436483  0.43390979    -0.01800
C2226       C  0.45065360  0.68032493  0.40710963     0.03100
C2227       C  0.54384869  0.69548984  0.39661653     0.37800
C2228       C  0.40262000  0.64344262  0.44945175     0.37800
C2229       C  0.42830615  0.69302710  0.39332732     0.36200
C2230       C  0.51356752  0.63737257  0.44269660     0.36200
N2231       N  0.41045583  0.70320004  0.38232656    -0.38600
N2232       N  0.53039374  0.62504914  0.45122993    -0.38600
N2233       N  0.37511458  0.63482098  0.46199131    -0.38100
N2234       N  0.57356415  0.70795829  0.38828865    -0.38100
C2235       C  0.62538127  0.81370273  0.32910597    -0.04700
C2236       C  0.65461345  0.82406160  0.30663089    -0.01900
C2237       C  0.68962355  0.85141327  0.31653711     0.03100
C2238       C  0.69611265  0.86793368  0.34954725    -0.04700
C2239       C  0.66677608  0.85832535  0.37169909    -0.01800
C2240       C  0.63159889  0.83144216  0.36154140     0.03100
C2241       C  0.64857846  0.80737414  0.27282755     0.37800
C2242       C  0.67283419  0.87517171  0.40543039     0.37800
C2243       C  0.60188610  0.82136198  0.38507514     0.36200
C2244       C  0.71898069  0.86340469  0.29219863     0.36200
N2245       N  0.57817349  0.81343003  0.40376471    -0.38600
N2246       N  0.74240691  0.87317809  0.27280001    -0.38600
N2247       N  0.67761650  0.88866055  0.43230002    -0.38100
N2248       N  0.64373056  0.79396724  0.24591459    -0.38100
C2249       C  0.35901087  0.78400399  0.26596222    -0.04700
C2250       C  0.38392518  0.80097756  0.29341315    -0.01900
C2251       C  0.41046349  0.79204179  0.29978230     0.03100
C2252       C  0.41244992  0.76623184  0.27885736    -0.04700
C2253       C  0.38699254  0.74848900  0.25237423    -0.01800
C2254       C  0.36203378  0.75871374  0.24468123     0.03100
C2255       C  0.38253023  0.82744958  0.31552976     0.37800
C2256       C  0.38569971  0.71871850  0.23327833     0.37800
C2257       C  0.34027024  0.74345360  0.21389466     0.36200
C2258       C  0.43583341  0.80970604  0.32778598     0.36200
N2259       N  0.32274820  0.73121742  0.18952837    -0.38600
N2260       N  0.45601024  0.82381476  0.35015904    -0.38600
N2261       N  0.38430904  0.69489759  0.21806584    -0.38100
N2262       N  0.38164614  0.84858131  0.33335721    -0.38100
C2263       C  0.41593006  0.62924790  0.26750986    -0.04700
C2264       C  0.40388156  0.61152946  0.29915903    -0.01900
C2265       C  0.36697270  0.58579146  0.30393282     0.03100
C2266       C  0.34187067  0.57866158  0.27727977    -0.04700
C2267       C  0.35466739  0.59723140  0.24580064    -0.01800
C2268       C  0.39160314  0.61922134  0.24011044     0.03100
C2269       C  0.42938259  0.61866734  0.32641458     0.37800
C2270       C  0.33021779  0.59605661  0.21972583     0.37800
C2271       C  0.40522264  0.63106465  0.20571142     0.36200
C2272       C  0.35535304  0.56671518  0.33608863     0.36200
N2273       N  0.41726942  0.64037452  0.17863965    -0.38600
N2274       N  0.34629804  0.55150970  0.36177894    -0.38600
N2275       N  0.31093003  0.59575528  0.19914434    -0.38100
N2276       N  0.44941298  0.62320217  0.34813924    -0.38100
C2277       C  0.51994356  0.87570608  0.16138190    -0.04700
C2278       C  0.54737671  0.86736772  0.15795039    -0.01900
C2279       C  0.55741073  0.85452238  0.18651931     0.03100
C2280       C  0.53947940  0.84897089  0.21834738    -0.04700
C2281       C  0.51857521  0.86505931  0.22338281    -0.01800
C2282       C  0.50788196  0.87725937  0.19488316     0.03100
C2283       C  0.56220357  0.86779297  0.12440633     0.37800
C2284       C  0.50644778  0.86747983  0.25745525     0.37800
C2285       C  0.48174726  0.88822635  0.19974704     0.36200
C2286       C  0.58523059  0.84560617  0.18308727     0.36200
N2287       N  0.46054482  0.89645064  0.20421417    -0.38600
N2288       N  0.60780942  0.83895485  0.18075055    -0.38600
N2289       N  0.49736334  0.87040978  0.28465428    -0.38100
N2290       N  0.57399686  0.86795931  0.09764436    -0.38100
C2291       C  0.53881319  0.68815057  0.18160885    -0.04700
C2292       C  0.52896284  0.65181445  0.18530807    -0.01900
C2293       C  0.51445006  0.62748928  0.15700584     0.03100
C2294       C  0.50822755  0.63885924  0.12525812    -0.04700
C2295       C  0.52467434  0.67632485  0.11999999    -0.01800
C2296       C  0.54011415  0.70080832  0.14806853     0.03100
C2297       C  0.52971980  0.63841748  0.21894400     0.37800
C2298       C  0.52305012  0.68970562  0.08663220     0.37800
C2299       C  0.55483736  0.73891473  0.14297017     0.36200
C2300       C  0.50416696  0.59021343  0.16091634     0.36200
N2301       N  0.56667079  0.76928976  0.13855121    -0.38600
N2302       N  0.49636145  0.56055433  0.16390999    -0.38600
N2303       N  0.52211635  0.70069291  0.06003335    -0.38100
N2304       N  0.53014223  0.62759583  0.24578942    -0.38100
loop_ 
_geom_bond_atom_site_label_1 
_geom_bond_atom_site_label_2 
_geom_bond_distance 
_geom_bond_site_symmetry_2 
_ccdc_geom_bond_type 
Fe1          O17   2.031       .  S
Fe1           O7   2.047       .  S
Fe1          O14   2.038       .  S
Fe1           O6   2.039       .  S
Fe1          O12   1.932       .  S
Fe2           O5   2.045       .  S
Fe2           O9   2.098       .  S
Fe2          O13   2.098       .  S
Fe2          O18   2.107       .  S
Fe2          O12   1.957       .  S
Fe3          O21   2.130       .  S
Fe3           O8   2.046       .  S
Fe3          O15   2.061       .  S
Fe3           O4   2.158       .  S
Fe3          O12   1.955       .  S
O4           C11   1.294       .  A
O5           C19   1.263       .  A
O6           C11   1.274       .  A
O7           C10   1.258       .  A
O8           C20   1.270       .  A
O9           C22   1.282       .  A
C10          O15   1.260       .  A
C10        C2252   1.481       .  S
C11        C2280   1.507       .  S
O13          C16   1.269       .  A
O14          C16   1.256       .  A
C16        C2291   1.499       .  S
O17          C22   1.277       .  A
O18          C20   1.285       .  A
C19          O21   1.278       .  A
C19        C2221   1.516       .  S
C20        C2235   1.492       .  S
C22        C2263   1.478       .  S
Fe23         O39   2.052       .  S
Fe23         O29   2.043       .  S
Fe23         O36   2.014       .  S
Fe23         O28   2.043       .  S
Fe23         O34   1.935       .  S
Fe24         O27   2.104       .  S
Fe24         O31   2.079       .  S
Fe24         O35   2.108   1_565  S
Fe24         O40   2.042       .  S
Fe24         O34   1.963       .  S
Fe25         O43   2.048       .  S
Fe25         O30   2.146       .  S
Fe25         O37   2.160       .  S
Fe25         O26   2.070       .  S
Fe25         O34   1.952       .  S
O26          C33   1.264       .  A
O27          C41   1.283       .  A
O28          C33   1.258       .  A
O29          C32   1.276       .  A
O30          C42   1.283       .  A
O31          C44   1.264       .  A
C32          O37   1.294       .  A
C32        C2207   1.513       .  S
C33        C2182   1.502       .  S
O35          C38   1.284       .  A
O36          C38   1.271   1_565  A
C38        C2165   1.493       .  S
O39          C44   1.259       .  A
O40          C42   1.261       .  A
C41          O43   1.271       .  A
C41        C2238   1.491       .  S
C42        C2154   1.518       .  S
C44        C2193   1.496       .  S
Fe45         O61   2.022       .  S
Fe45         O51   2.038       .  S
Fe45         O58   2.043       .  S
Fe45         O50   2.049       .  S
Fe45         O56   1.939       .  S
Fe46         O49   2.056       .  S
Fe46         O53   2.105       .  S
Fe46         O57   2.092       .  S
Fe46         O62   2.121       .  S
Fe46         O56   1.969       .  S
Fe47         O65   2.120       .  S
Fe47         O52   2.060       .  S
Fe47         O59   2.070       .  S
Fe47         O48   2.131       .  S
Fe47         O56   1.962       .  S
O48          C55   1.286       .  A
O49          C63   1.262       .  A
O50          C55   1.275       .  A
O51          C54   1.258       .  A
O52          C64   1.273       .  A
O53          C66   1.283       .  A
C54          O59   1.266       .  A
C54        C2095   1.498       .  S
C55        C2123   1.504       .  S
O57          C60   1.268       .  A
O58          C60   1.259       .  A
C60        C2140   1.502       .  S
O61          C66   1.271       .  A
O62          C64   1.287       .  A
C63          O65   1.276       .  A
C63        C2084   1.506       .  S
C64        C2112   1.505       .  S
C66        C2249   1.500       .  S
Fe67         O83   2.035       .  S
Fe67         O73   2.042       .  S
Fe67         O80   2.037       .  S
Fe67         O72   2.031       .  S
Fe67         O78   1.934       .  S
Fe68         O71   2.112       .  S
Fe68         O75   2.092       .  S
Fe68         O79   2.109   1_455  S
Fe68         O84   2.053       .  S
Fe68         O78   1.955       .  S
Fe69         O87   2.065       .  S
Fe69         O74   2.130       .  S
Fe69         O81   2.147       .  S
Fe69         O70   2.085       .  S
Fe69         O78   1.949       .  S
O70          C77   1.265       .  A
O71          C85   1.285       .  A
O72          C77   1.255       .  A
O73          C76   1.277       .  A
O74          C86   1.282       .  A
O75          C88   1.267       .  A
C76          O81   1.292       .  A
C76        C2056   1.503       .  S
C77        C2039   1.497   1_565  S
O79          C82   1.286       .  A
O80          C82   1.275   1_455  A
C82        C2179   1.473       .  S
O83          C88   1.256       .  A
O84          C86   1.263       .  A
C85          O87   1.273       .  A
C85        C2109   1.503       .  S
C86        C2025   1.527       .  S
C88        C2067   1.497       .  S
Fe89        O105   2.041       .  S
Fe89         O95   2.033       .  S
Fe89        O102   2.040       .  S
Fe89         O94   2.048       .  S
Fe89        O100   1.938       .  S
Fe90         O93   2.031       .  S
Fe90         O97   2.107       .  S
Fe90        O101   2.092       .  S
Fe90        O106   2.120       .  S
Fe90        O100   1.948       .  S
Fe91        O109   2.135       .  S
Fe91         O96   2.048       .  S
Fe91        O103   2.075       .  S
Fe91         O92   2.155       .  S
Fe91        O100   1.955       .  S
O92          C99   1.293       .  A
O93         C107   1.260       .  A
O94          C99   1.276       .  A
O95          C98   1.256       .  A
O96         C108   1.271       .  A
O97         C110   1.285       .  A
C98         O103   1.264       .  A
C98        C2266   1.491       .  S
C99        C1997   1.510       .  S
O101        C104   1.268       .  A
O102        C104   1.257       .  A
C104       C2011   1.498       .  S
O105        C110   1.275       .  A
O106        C108   1.288       .  A
C107        O109   1.279       .  A
C107       C1969   1.524       .  S
C108       C1986   1.495       .  S
C110       C2098   1.474       .  S
Fe111       O127   2.032       .  S
Fe111       O117   2.044       .  S
Fe111       O124   2.036       .  S
Fe111       O116   2.036       .  S
Fe111       O122   1.935       .  S
Fe112       O115   2.114       .  S
Fe112       O119   2.105       .  S
Fe112       O123   2.101       .  S
Fe112       O128   2.053       .  S
Fe112       O122   1.966       .  S
Fe113       O131   2.052       .  S
Fe113       O118   2.128       .  S
Fe113       O125   2.164       .  S
Fe113       O114   2.064       .  S
Fe113       O122   1.956       .  S
O114        C121   1.259       .  A
O115        C129   1.286       .  A
O116        C121   1.257       .  A
O117        C120   1.275       .  A
O118        C130   1.278       .  A
O119        C132   1.271       .  A
C120        O125   1.295       .  A
C120       C1944   1.511       .  S
C121       C2168   1.480   1_455  S
O123        C126   1.282       .  A
O124        C126   1.278       .  A
C126       C2042   1.481       .  S
O127        C132   1.255       .  A
O128        C130   1.264       .  A
C129        O131   1.272       .  A
C129       C1983   1.497       .  S
C130       C1927   1.515       .  S
C132       C1955   1.501       .  S
Fe133       O149   2.035       .  S
Fe133       O139   2.051       .  S
Fe133       O146   2.034       .  S
Fe133       O138   2.044       .  S
Fe133       O144   1.947       .  S
Fe134       O137   2.121       .  S
Fe134       O141   2.105       .  S
Fe134       O145   2.097       .  S
Fe134       O150   2.068       .  S
Fe134       O144   1.977       .  S
Fe135       O153   2.063       .  S
Fe135       O140   2.107       .  S
Fe135       O147   2.119       .  S
Fe135       O136   2.067       .  S
Fe135       O144   1.966       .  S
O136        C143   1.263       .  A
O137        C151   1.285       .  A
O138        C143   1.257       .  A
O139        C142   1.277       .  A
O140        C152   1.275       .  A
O141        C154   1.272       .  A
C142        O147   1.286       .  A
C142       C1916   1.497       .  S
C143       C1874   1.499       .  S
O145        C148   1.281       .  A
O146        C148   1.276       .  A
C148       C1860   1.479       .  S
O149        C154   1.257       .  A
O150        C152   1.267       .  A
C151        O153   1.270       .  A
C151       C1885   1.514       .  S
C152       C1843   1.503       .  S
C154       C1902   1.504       .  S
Fe155       O171   2.012       .  S
Fe155       O161   2.058       .  S
Fe155       O168   2.045       .  S
Fe155       O160   2.022       .  S
Fe155       O166   1.940       .  S
Fe156       O159   2.036       .  S
Fe156       O163   2.131       .  S
Fe156       O167   2.098       .  S
Fe156       O172   2.144       .  S
Fe156       O166   1.945       .  S
Fe157       O175   2.147       .  S
Fe157       O162   2.048       .  S
Fe157       O169   2.078       .  S
Fe157       O158   2.164       .  S
Fe157       O166   1.952       .  S
O158        C165   1.295       .  A
O159        C173   1.259       .  A
O160        C165   1.270       .  A
O161        C164   1.261       .  A
O162        C174   1.272       .  A
O163        C176   1.292       .  A
C164        O169   1.265       .  A
C164       C1787   1.489       .  S
C165       C1818   1.504       .  S
O167        C170   1.268       .  A
O168        C170   1.257       .  A
C170       C1829   1.504       .  S
O171        C176   1.269       .  A
O172        C174   1.294       .  A
C173        O175   1.282       .  A
C173       C2081   1.541       .  S
C174       C1888   1.515       .  S
C176       C1804   1.472       .  S
Fe177       O193   2.035       .  S
Fe177       O183   2.043       .  S
Fe177       O190   2.052       .  S
Fe177       O182   2.048       .  S
Fe177       O188   1.930       .  S
Fe178       O181   2.027       .  S
Fe178       O185   2.126       .  S
Fe178       O189   2.082       .  S
Fe178       O194   2.127       .  S
Fe178       O188   1.950       .  S
Fe179       O197   2.143       .  S
Fe179       O184   2.063       .  S
Fe179       O191   2.084       .  S
Fe179       O180   2.151       .  S
Fe179       O188   1.952       .  S
O180        C187   1.292       .  A
O181        C195   1.258       .  A
O182        C187   1.276       .  A
O183        C186   1.257       .  A
O184        C196   1.274       .  A
O185        C198   1.290       .  A
C186        O191   1.267       .  A
C186       C1748   1.507       .  S
C187       C1773   1.508       .  S
O189        C192   1.264       .  A
O190        C192   1.259       .  A
C192       C1759   1.498       .  S
O193        C198   1.274       .  A
O194        C196   1.290       .  A
C195        O197   1.280       .  A
C195       C2224   1.513       .  S
C196       C1731   1.513       .  S
C198       C1790   1.510       .  S
Fe199       O215   2.042       .  S
Fe199       O205   2.039       .  S
Fe199       O212   2.043       .  S
Fe199       O204   2.044       .  S
Fe199       O210   1.940       .  S
Fe200       O203   2.132       .  S
Fe200       O207   2.097       .  S
Fe200       O211   2.121       .  S
Fe200       O216   2.045       .  S
Fe200       O210   1.952       .  S
Fe201       O219   2.063       .  S
Fe201       O206   2.137       .  S
Fe201       O213   2.148       .  S
Fe201       O202   2.086       .  S
Fe201       O210   1.962       .  S
O202        C209   1.268       .  A
O203        C217   1.291       .  A
O204        C209   1.260       .  A
O205        C208   1.273       .  A
O206        C218   1.280       .  A
O207        C220   1.268       .  A
C208        O213   1.290       .  A
C208       C1706   1.506       .  S
C209       C1689   1.492       .  S
O211        C214   1.288       .  A
O212        C214   1.274       .  A
C214       C1871   1.482       .  S
O215        C220   1.257       .  A
O216        C218   1.261       .  A
C217        O219   1.275       .  A
C217       C1734   1.514       .  S
C218       C1678   1.533       .  S
C220       C1717   1.504       .  S
Fe221       O237   2.066       .  S
Fe221       O227   2.058       .  S
Fe221       O234   2.053       .  S
Fe221       O226   2.054       .  S
Fe221       O232   1.937       .  S
Fe222       O225   2.071       .  S
Fe222       O229   2.065       .  S
Fe222       O233   2.096       .  S
Fe222       O238   2.088       .  S
Fe222       O232   1.967       .  S
Fe223       O241   2.104       .  S
Fe223       O228   2.067       .  S
Fe223       O235   2.029       .  S
Fe223       O224   2.105       .  S
Fe223       O232   1.951       .  S
O224        C231   1.282       .  A
O225        C239   1.268       .  A
O226        C231   1.273       .  A
O227        C230   1.266       .  A
O228        C240   1.273       .  A
O229        C242   1.275       .  A
C230        O235   1.260       .  A
C230       C1801   1.476       .  S
C231       C1661   1.492       .  S
O233        C236   1.268       .  A
O234        C236   1.261       .  A
C236       C1650   1.514       .  S
O237        C242   1.278       .  A
O238        C240   1.283       .  A
C239        O241   1.271       .  A
C239       C1972   1.507       .  S
C240       C1633   1.493       .  S
C242       C1745   1.492       .  S
Fe243       O259   2.052       .  S
Fe243       O249   2.045       .  S
Fe243       O256   2.040       .  S
Fe243       O248   2.042       .  S
Fe243       O254   1.930       .  S
Fe244       O247   2.110       .  S
Fe244       O251   2.087       .  S
Fe244       O255   2.116       .  S
Fe244       O260   2.045       .  S
Fe244       O254   1.954       .  S
Fe245       O263   2.048       .  S
Fe245       O250   2.119       .  S
Fe245       O257   2.142       .  S
Fe245       O246   2.069       .  S
Fe245       O254   1.956       .  S
O246        C253   1.262       .  A
O247        C261   1.286       .  A
O248        C253   1.257       .  A
O249        C252   1.276       .  A
O250        C262   1.275       .  A
O251        C264   1.264       .  A
C252        O257   1.290       .  A
C252       C1619   1.505       .  S
C253       C1857   1.499       .  S
O255        C258   1.288       .  A
O256        C258   1.277       .  A
C258       C1692   1.507       .  S
O259        C264   1.258       .  A
O260        C262   1.262       .  A
C261        O263   1.271       .  A
C261       C1636   1.502       .  S
C262       C1591   1.504       .  S
C264       C1605   1.504       .  S
Fe265       O281   2.043       .  S
Fe265       O271   2.052       .  S
Fe265       O278   2.028       .  S
Fe265       O270   2.045       .  S
Fe265       O276   1.943       .  S
Fe266       O269   2.105       .  S
Fe266       O273   2.087       .  S
Fe266       O277   2.101       .  S
Fe266       O282   2.055       .  S
Fe266       O276   1.971       .  S
Fe267       O285   2.041       .  S
Fe267       O272   2.125       .  S
Fe267       O279   2.139       .  S
Fe267       O268   2.059       .  S
Fe267       O276   1.957       .  S
O268        C275   1.262       .  A
O269        C283   1.282       .  A
O270        C275   1.258       .  A
O271        C274   1.276       .  A
O272        C284   1.279       .  A
O273        C286   1.268       .  A
C274        O279   1.289       .  A
C274       C1580   1.506       .  S
C275       C1535   1.495       .  S
O277        C280   1.281       .  A
O278        C280   1.274       .  A
C280       C1521   1.483       .  S
O281        C286   1.258       .  A
O282        C284   1.264       .  A
C283        O285   1.268       .  A
C283       C1549   1.494       .  S
C284       C1675   1.507       .  S
C286       C1563   1.495       .  S
Fe287       O303   2.038       .  S
Fe287       O293   2.039       .  S
Fe287       O300   2.033       .  S
Fe287       O292   2.043       .  S
Fe287       O298   1.937       .  S
Fe288       O291   2.044       .  S
Fe288       O295   2.097   1_545  S
Fe288       O299   2.093       .  S
Fe288       O304   2.103       .  S
Fe288       O298   1.957       .  S
Fe289       O307   2.125       .  S
Fe289       O294   2.049       .  S
Fe289       O301   2.069       .  S
Fe289       O290   2.152       .  S
Fe289       O298   1.955       .  S
O290        C297   1.292       .  A
O291        C305   1.263       .  A
O292        C297   1.274       .  A
O293        C296   1.257       .  A
O294        C306   1.271       .  A
O295        C308   1.282       .  A
C296        O301   1.262       .  A
C296       C1510   1.490       .  S
C297       C1958   1.508       .  S
O299        C302   1.268       .  A
O300        C302   1.256       .  A
C302       C2053   1.495       .  S
O303        C308   1.277   1_545  A
O304        C306   1.284       .  A
C305        O307   1.278       .  A
C305       C1479   1.512       .  S
C306       C1552   1.494       .  S
C308       C1493   1.473       .  S
Fe309       O325   2.049       .  S
Fe309       O315   2.036       .  S
Fe309       O322   2.033       .  S
Fe309       O314   2.045       .  S
Fe309       O320   1.936       .  S
Fe310       O313   2.111       .  S
Fe310       O317   2.088       .  S
Fe310       O321   2.107       .  S
Fe310       O326   2.039       .  S
Fe310       O320   1.948       .  S
Fe311       O329   2.050       .  S
Fe311       O316   2.128       .  S
Fe311       O323   2.145       .  S
Fe311       O312   2.082       .  S
Fe311       O320   1.959       .  S
O312        C319   1.265       .  A
O313        C327   1.284       .  A
O314        C319   1.259       .  A
O315        C318   1.274       .  A
O316        C328   1.278       .  A
O317        C330   1.266       .  A
C318        O323   1.291       .  A
C318       C1465   1.502       .  S
C319       C1423   1.490       .  S
O321        C324   1.285       .  A
O322        C324   1.273       .  A
C324       C1538   1.470       .  S
O325        C330   1.258       .  A
O326        C328   1.261       .  A
C327        O329   1.271       .  A
C327       C1440   1.489       .  S
C328       C1846   1.527       .  S
C330       C1451   1.500       .  S
Fe331       O347   2.035       .  S
Fe331       O337   2.048       .  S
Fe331       O344   2.043       .  S
Fe331       O336   2.040       .  S
Fe331       O342   1.934       .  S
Fe332       O335   2.052       .  S
Fe332       O339   2.096       .  S
Fe332       O343   2.099       .  S
Fe332       O348   2.101       .  S
Fe332       O342   1.963       .  S
Fe333       O351   2.121       .  S
Fe333       O338   2.064       .  S
Fe333       O345   2.092       .  S
Fe333       O334   2.135       .  S
Fe333       O342   1.967       .  S
O334        C341   1.288       .  A
O335        C349   1.264       .  A
O336        C341   1.274       .  A
O337        C340   1.261       .  A
O338        C350   1.274       .  A
O339        C352   1.283       .  A
C340        O345   1.268       .  A
C340       C1409   1.500   1_545  S
C341       C2196   1.498       .  S
O343        C346   1.268       .  A
O344        C346   1.257       .  A
C346       C1941   1.508       .  S
O347        C352   1.277       .  A
O348        C350   1.284       .  A
C349        O351   1.276       .  A
C349       C1395   1.519       .  S
C350       C1437   1.490       .  S
C352       C1507   1.481   1_655  S
Fe353       O369   2.041       .  S
Fe353       O359   2.041       .  S
Fe353       O366   2.035       .  S
Fe353       O358   2.033       .  S
Fe353       O364   1.925       .  S
Fe354       O357   2.131       .  S
Fe354       O361   2.088       .  S
Fe354       O365   2.128       .  S
Fe354       O370   2.033       .  S
Fe354       O364   1.944       .  S
Fe355       O373   2.051       .  S
Fe355       O360   2.136       .  S
Fe355       O367   2.154       .  S
Fe355       O356   2.085       .  S
Fe355       O364   1.952       .  S
O356        C363   1.266       .  A
O357        C371   1.290       .  A
O358        C363   1.254       .  A
O359        C362   1.277       .  A
O360        C372   1.280       .  A
O361        C374   1.265       .  A
C362        O367   1.294       .  A
C362       C1384   1.507       .  S
C363       C1524   1.496       .  S
O365        C368   1.292       .  A
O366        C368   1.278       .  A
C368       C1426   1.504       .  S
O369        C374   1.255       .  A
O370        C372   1.260       .  A
C371        O373   1.272       .  A
C371       C1353   1.516       .  S
C372       C1594   1.525       .  S
C374       C1367   1.498       .  S
Fe375       O391   2.037       .  S
Fe375       O381   2.043       .  S
Fe375       O388   2.051       .  S
Fe375       O380   2.051       .  S
Fe375       O386   1.934       .  S
Fe376       O379   2.043       .  S
Fe376       O383   2.126       .  S
Fe376       O387   2.089       .  S
Fe376       O392   2.131       .  S
Fe376       O386   1.947       .  S
Fe377       O395   2.125       .  S
Fe377       O382   2.052       .  S
Fe377       O389   2.069       .  S
Fe377       O378   2.139       .  S
Fe377       O386   1.948       .  S
O378        C385   1.290       .  A
O379        C393   1.260       .  A
O380        C385   1.278       .  A
O381        C384   1.256       .  A
O382        C394   1.272       .  A
O383        C396   1.291       .  A
C384        O389   1.263       .  A
C384       C1496   1.502   1_655  S
C385       C2070   1.505       .  S
O387        C390   1.265       .  A
O388        C390   1.258       .  A
C390       C2210   1.504       .  S
O391        C396   1.277       .  A
O392        C394   1.292       .  A
C393        O395   1.276       .  A
C393       C1339   1.521       .  S
C394       C1356   1.516       .  S
C396       C1412   1.513       .  S
Fe397       O413   2.040       .  S
Fe397       O403   2.052       .  S
Fe397       O410   2.059       .  S
Fe397       O402   2.038       .  S
Fe397       O408   1.946       .  S
Fe398       O401   2.094       .  S
Fe398       O405   2.089       .  S
Fe398       O409   2.080       .  S
Fe398       O414   2.043       .  S
Fe398       O408   1.963       .  S
Fe399       O417   2.058       .  S
Fe399       O404   2.127       .  S
Fe399       O411   2.130       .  S
Fe399       O400   2.040       .  S
Fe399       O408   1.952       .  S
O400        C407   1.259       .  A
O401        C415   1.286       .  A
O402        C407   1.257       .  A
O403        C406   1.277       .  A
O404        C416   1.274       .  A
O405        C418   1.266       .  A
C406        O411   1.289       .  A
C406       C1762   1.501       .  S
C407       C1297   1.494       .  S
O409        C412   1.281       .  A
O410        C412   1.277       .  A
C412       C1325   1.500       .  S
O413        C418   1.257       .  A
O414        C416   1.259       .  A
C415        O417   1.273       .  A
C415       C1311   1.501       .  S
C416       C1283   1.509       .  S
C418       C1815   1.504       .  S
Fe419       O435   2.040       .  S
Fe419       O425   2.038       .  S
Fe419       O432   2.038       .  S
Fe419       O424   2.044       .  S
Fe419       O430   1.937       .  S
Fe420       O423   2.054       .  S
Fe420       O427   2.082       .  S
Fe420       O431   2.106       .  S
Fe420       O436   2.098       .  S
Fe420       O430   1.964       .  S
Fe421       O439   2.116       .  S
Fe421       O426   2.052       .  S
Fe421       O433   2.065       .  S
Fe421       O422   2.148       .  S
Fe421       O430   1.964       .  S
O422        C429   1.291       .  A
O423        C437   1.266       .  A
O424        C429   1.274       .  A
O425        C428   1.259       .  A
O426        C438   1.271       .  A
O427        C440   1.277       .  A
C428        O433   1.259       .  A
C428       C1227   1.485   1_565  S
C429       C1255   1.506       .  S
O431        C434   1.273       .  A
O432        C434   1.257       .  A
C434       C1269   1.503       .  S
O435        C440   1.276       .  A
O436        C438   1.282       .  A
C437        O439   1.276       .  A
C437       C1342   1.508       .  S
C438       C1314   1.495       .  S
C440       C1241   1.468       .  S
Fe441       O457   2.035       .  S
Fe441       O447   2.047       .  S
Fe441       O454   2.052       .  S
Fe441       O446   2.047       .  S
Fe441       O452   1.939       .  S
Fe442       O445   2.094       .  S
Fe442       O449   2.099       .  S
Fe442       O453   2.087       .  S
Fe442       O458   2.055       .  S
Fe442       O452   1.961       .  S
Fe443       O461   2.045       .  S
Fe443       O448   2.118       .  S
Fe443       O455   2.145       .  S
Fe443       O444   2.067       .  S
Fe443       O452   1.963       .  S
O444        C451   1.262       .  A
O445        C459   1.281       .  A
O446        C451   1.258       .  A
O447        C450   1.276       .  A
O448        C460   1.277       .  A
O449        C462   1.270       .  A
C450        O455   1.291       .  A
C450       C1647   1.505       .  S
C451       C1213   1.495       .  S
O453        C456   1.280       .  A
O454        C456   1.280       .  A
C456       C1300   1.469       .  S
O457        C462   1.256       .  A
O458        C460   1.266       .  A
C459        O461   1.269       .  A
C459       C1202   1.478       .  S
C460       C1185   1.515       .  S
C462       C1776   1.500       .  S
Fe463       O479   2.026       .  S
Fe463       O469   2.059       .  S
Fe463       O476   2.057       .  S
Fe463       O468   2.037       .  S
Fe463       O474   1.929       .  S
Fe464       O467   2.035       .  S
Fe464       O471   2.115   1_455  S
Fe464       O475   2.080       .  S
Fe464       O480   2.106       .  S
Fe464       O474   1.952       .  S
Fe465       O483   2.135       .  S
Fe465       O470   2.045       .  S
Fe465       O477   2.078       .  S
Fe465       O466   2.160       .  S
Fe465       O474   1.948       .  S
O466        C473   1.294       .  A
O467        C481   1.259       .  A
O468        C473   1.274       .  A
O469        C472   1.260       .  A
O470        C482   1.271       .  A
O471        C484   1.288       .  A
C472        O477   1.264       .  A
C472       C1143   1.502       .  S
C473       C1160   1.509       .  S
O475        C478   1.263       .  A
O476        C478   1.260       .  A
C478       C1171   1.499   1_556  S
O479        C484   1.275   1_455  A
O480        C482   1.285       .  A
C481        O483   1.280       .  A
C481       C1398   1.511       .  S
C482       C1199   1.480       .  S
C484       C1230   1.496       .  S
Fe485       O501   2.066       .  S
Fe485       O491   2.027       .  S
Fe485       O498   2.008       .  S
Fe485       O490   2.071       .  S
Fe485       O496   1.927       .  S
Fe486       O489   2.136       .  S
Fe486       O493   2.081       .  S
Fe486       O497   2.137       .  S
Fe486       O502   2.037       .  S
Fe486       O496   1.953       .  S
Fe487       O505   2.036       .  S
Fe487       O492   2.131       .  S
Fe487       O499   2.172       .  S
Fe487       O488   2.049       .  S
Fe487       O496   1.950       .  S
O488        C495   1.256       .  A
O489        C503   1.288       .  A
O490        C495   1.265       .  A
O491        C494   1.269       .  A
O492        C504   1.281       .  A
O493        C506   1.267       .  A
C494        O499   1.296       .  A
C494       C1832   1.504       .  S
C495       C1328   1.472       .  S
O497        C500   1.289       .  A
O498        C500   1.267       .  A
C500       C1216   1.494       .  S
O501        C506   1.263       .  A
O502        C504   1.263       .  A
C503        O505   1.267       .  A
C503       C1129   1.497       .  S
C504       C1115   1.507       .  S
C506       C1664   1.498       .  S
Fe507       O523   2.035       .  S
Fe507       O513   2.033       .  S
Fe507       O520   2.050       .  S
Fe507       O512   2.042       .  S
Fe507       O518   1.932       .  S
Fe508       O511   2.045       .  S
Fe508       O515   2.126       .  S
Fe508       O519   2.099       .  S
Fe508       O524   2.128       .  S
Fe508       O518   1.950       .  S
Fe509       O527   2.120       .  S
Fe509       O514   2.048       .  S
Fe509       O521   2.068       .  S
Fe509       O510   2.134       .  S
Fe509       O518   1.958       .  S
O510        C517   1.289       .  A
O511        C525   1.263       .  A
O512        C517   1.276       .  A
O513        C516   1.253       .  A
O514        C526   1.270       .  A
O515        C528   1.290       .  A
C516        O521   1.264       .  A
C516       C1244   1.501   1_455  S
C517       C1101   1.499       .  S
O519        C522   1.268       .  A
O520        C522   1.258       .  A
C522       C1087   1.506       .  S
O523        C528   1.275       .  A
O524        C526   1.289       .  A
C525        O527   1.276       .  A
C525       C1482   1.511       .  S
C526       C1132   1.498       .  S
C528       C1146   1.501   1_565  S
Fe529       O545   2.030       .  S
Fe529       O535   2.052       .  S
Fe529       O542   2.051       .  S
Fe529       O534   2.040       .  S
Fe529       O540   1.942       .  S
Fe530       O533   2.065   1_556  S
Fe530       O537   2.102       .  S
Fe530       O541   2.092       .  S
Fe530       O546   2.115       .  S
Fe530       O540   1.959       .  S
Fe531       O549   2.124   1_556  S
Fe531       O536   2.068       .  S
Fe531       O543   2.087       .  S
Fe531       O532   2.144       .  S
Fe531       O540   1.954       .  S
O532        C539   1.291       .  A
O533        C547   1.265       .  A
O534        C539   1.275       .  A
O535        C538   1.261       .  A
O536        C548   1.274       .  A
O537        C550   1.285       .  A
C538        O543   1.266       .  A
C538       C1045   1.494       .  S
C539       C1566   1.500       .  S
O541        C544   1.268       .  A
O542        C544   1.259       .  A
C544       C1381   1.505       .  S
O545        C550   1.272       .  A
O546        C548   1.285       .  A
C547        O549   1.280       .  A
C547       C1034   1.528       .  S
C548       C1073   1.498       .  S
C550       C1059   1.466       .  S
Fe551       O567   2.029       .  S
Fe551       O557   2.043       .  S
Fe551       O564   2.043       .  S
Fe551       O556   2.034       .  S
Fe551       O562   1.941       .  S
Fe552       O555   2.121       .  S
Fe552       O559   2.107       .  S
Fe552       O563   2.110       .  S
Fe552       O568   2.055       .  S
Fe552       O562   1.961       .  S
Fe553       O571   2.060       .  S
Fe553       O558   2.116   1_554  S
Fe553       O565   2.150       .  S
Fe553       O554   2.072       .  S
Fe553       O562   1.963       .  S
O554        C561   1.262       .  A
O555        C569   1.287       .  A
O556        C561   1.256       .  A
O557        C560   1.274       .  A
O558        C570   1.277       .  A
O559        C572   1.272       .  A
C560        O565   1.292       .  A
C560       C2294   1.506       .  S
C561       C1020   1.493       .  S
O563        C566   1.284       .  A
O564        C566   1.277       .  A
C566       C1003   1.481       .  S
O567        C572   1.255       .  A
O568        C570   1.265   1_554  A
C569        O571   1.271       .  A
C569       C1076   1.497       .  S
C570       C1188   1.511       .  S
C572       C2000   1.501       .  S
Fe573       O589   2.044       .  S
Fe573       O579   2.030       .  S
Fe573       O586   2.038       .  S
Fe573       O578   2.050       .  S
Fe573       O584   1.931       .  S
Fe574       O577   2.034   1_556  S
Fe574       O581   2.123       .  S
Fe574       O585   2.095       .  S
Fe574       O590   2.125       .  S
Fe574       O584   1.951       .  S
Fe575       O593   2.132   1_556  S
Fe575       O580   2.052       .  S
Fe575       O587   2.083       .  S
Fe575       O576   2.145       .  S
Fe575       O584   1.957       .  S
O576        C583   1.291       .  A
O577        C591   1.260       .  A
O578        C583   1.276       .  A
O579        C582   1.253       .  A
O580        C592   1.272       .  A
O581        C594   1.288       .  A
C582        O587   1.266       .  A
C582        C975   1.498       .  S
C583       C1454   1.507       .  S
O585        C588   1.267       .  A
O586        C588   1.256       .  A
C588       C1577   1.500       .  S
O589        C594   1.277       .  A
O590        C592   1.289       .  A
C591        O593   1.278       .  A
C591        C961   1.519       .  S
C592        C989   1.492       .  S
C594       C1048   1.509       .  S
Fe595       O611   2.039       .  S
Fe595       O601   2.039       .  S
Fe595       O608   2.032       .  S
Fe595       O600   2.040       .  S
Fe595       O606   1.932       .  S
Fe596       O599   2.115       .  S
Fe596       O603   2.099       .  S
Fe596       O607   2.106       .  S
Fe596       O612   2.040       .  S
Fe596       O606   1.958       .  S
Fe597       O615   2.060       .  S
Fe597       O602   2.132   1_554  S
Fe597       O609   2.158       .  S
Fe597       O598   2.080       .  S
Fe597       O606   1.961       .  S
O598        C605   1.264       .  A
O599        C613   1.286       .  A
O600        C605   1.257       .  A
O601        C604   1.275       .  A
O602        C614   1.279       .  A
O603        C616   1.270       .  A
C604        O609   1.294       .  A
C604       C2137   1.509       .  S
C605        C947   1.490       .  S
O607        C610   1.283       .  A
O608        C610   1.276       .  A
C610       C1017   1.482       .  S
O611        C616   1.256       .  A
O612        C614   1.262   1_554  A
C613        O615   1.273       .  A
C613        C992   1.492       .  S
C614       C1286   1.524       .  S
C616       C2277   1.500       .  S
Fe617       O633   2.058       .  S
Fe617       O623   2.047       .  S
Fe617       O630   2.030       .  S
Fe617       O622   2.058       .  S
Fe617       O628   1.934       .  S
Fe618       O621   2.095       .  S
Fe618       O625   2.075       .  S
Fe618       O629   2.107       .  S
Fe618       O634   2.026       .  S
Fe618       O628   1.960       .  S
Fe619       O637   2.048       .  S
Fe619       O624   2.131   1_554  S
Fe619       O631   2.143       .  S
Fe619       O620   2.074       .  S
Fe619       O628   1.952       .  S
O620        C627   1.266       .  A
O621        C635   1.282       .  A
O622        C627   1.259       .  A
O623        C626   1.276       .  A
O624        C636   1.279       .  A
O625        C638   1.262       .  A
C626        O631   1.290       .  A
C626       C2014   1.506       .  S
C627       C1006   1.514       .  S
O629        C632   1.284       .  A
O630        C632   1.274       .  A
C632        C950   1.499       .  S
O633        C638   1.261       .  A
O634        C636   1.258   1_554  A
C635        O637   1.272       .  A
C635        C936   1.485       .  S
C636       C1118   1.503       .  S
C638       C2126   1.499       .  S
Fe639       O655   2.035       .  S
Fe639       O645   2.051       .  S
Fe639       O652   2.049       .  S
Fe639       O644   2.054       .  S
Fe639       O650   1.945       .  S
Fe640       O643   2.053       .  S
Fe640       O647   2.093       .  S
Fe640       O651   2.086       .  S
Fe640       O656   2.098       .  S
Fe640       O650   1.971       .  S
Fe641       O659   2.122   1_556  S
Fe641       O646   2.037       .  S
Fe641       O653   2.049       .  S
Fe641       O642   2.137       .  S
Fe641       O650   1.961       .  S
O642        C649   1.288       .  A
O643        C657   1.264   1_556  A
O644        C649   1.276       .  A
O645        C648   1.260       .  A
O646        C658   1.267       .  A
O647        C660   1.279       .  A
C648        O653   1.261       .  A
C648       C1062   1.493       .  S
C649       C1370   1.508       .  S
O651        C654   1.268       .  A
O652        C654   1.260       .  A
C654       C1468   1.494       .  S
O655        C660   1.275       .  A
O656        C658   1.281       .  A
C657        O659   1.278       .  A
C657        C919   1.505       .  S
C658        C933   1.487       .  S
C660        C978   1.481       .  S
Fe661       O677   2.055       .  S
Fe661       O667   2.037       .  S
Fe661       O674   2.024       .  S
Fe661       O666   2.052       .  S
Fe661       O672   1.938       .  S
Fe662       O665   2.105       .  S
Fe662       O669   2.076       .  S
Fe662       O673   2.104       .  S
Fe662       O678   2.038       .  S
Fe662       O672   1.949       .  S
Fe663       O681   2.048       .  S
Fe663       O668   2.147       .  S
Fe663       O675   2.170       .  S
Fe663       O664   2.073       .  S
Fe663       O672   1.936       .  S
O664        C671   1.264       .  A
O665        C679   1.283       .  A
O666        C671   1.258       .  A
O667        C670   1.274       .  A
O668        C680   1.285       .  A
O669        C682   1.265       .  A
C670        O675   1.297       .  A
C670       C1272   1.513       .  S
C671        C894   1.491       .  S
O673        C676   1.285       .  A
O674        C676   1.270       .  A
C676        C877   1.466   1_655  S
O677        C682   1.261       .  A
O678        C680   1.259       .  A
C679        O681   1.271       .  A
C679        C905   1.482       .  S
C680       C2028   1.522       .  S
C682       C1104   1.490       .  S
Fe683       O699   2.022       .  S
Fe683       O689   2.033       .  S
Fe683       O696   2.043       .  S
Fe683       O688   2.042       .  S
Fe683       O694   1.944       .  S
Fe684       O687   2.049       .  S
Fe684       O691   2.096       .  S
Fe684       O695   2.092       .  S
Fe684       O700   2.104       .  S
Fe684       O694   1.962       .  S
Fe685       O703   2.144       .  S
Fe685       O690   2.048       .  S
Fe685       O697   2.075       .  S
Fe685       O686   2.151       .  S
Fe685       O694   1.956       .  S
O686        C693   1.292       .  A
O687        C701   1.261       .  A
O688        C693   1.275       .  A
O689        C692   1.255       .  A
O690        C702   1.270       .  A
O691        C704   1.283       .  A
C692        O697   1.267       .  A
C692        C852   1.504       .  S
C693       C1608   1.508       .  S
O695        C698   1.268       .  A
O696        C698   1.257       .  A
C698       C1703   1.499       .  S
O699        C704   1.270       .  A
O700        C702   1.283       .  A
C701        O703   1.284       .  A
C701       C1031   1.526       .  S
C702        C908   1.482       .  S
C704        C866   1.462       .  S
Fe705       O721   2.036       .  S
Fe705       O711   2.047       .  S
Fe705       O718   2.031       .  S
Fe705       O710   2.022       .  S
Fe705       O716   1.936       .  S
Fe706       O709   2.099       .  S
Fe706       O713   2.096       .  S
Fe706       O717   2.100       .  S
Fe706       O722   2.056       .  S
Fe706       O716   1.966       .  S
Fe707       O725   2.047       .  S
Fe707       O712   2.134       .  S
Fe707       O719   2.141       .  S
Fe707       O708   2.069       .  S
Fe707       O716   1.969       .  S
O708        C715   1.265       .  A
O709        C723   1.281       .  A
O710        C715   1.253       .  A
O711        C714   1.276       .  A
O712        C724   1.281       .  A
O713        C726   1.268       .  A
C714        O719   1.289       .  A
C714       C1174   1.503       .  S
C715        C821   1.501   1_655  S
O717        C720   1.282   1_545  A
O718        C720   1.274   1_545  A
C720        C891   1.483       .  S
O721        C726   1.256       .  A
O722        C724   1.266       .  A
C723        O725   1.269       .  A
C723        C835   1.488       .  S
C724       C2151   1.519       .  S
C726       C1258   1.499       .  S
Fe727       O743   2.050       .  S
Fe727       O733   2.042       .  S
Fe727       O740   2.049       .  S
Fe727       O732   2.051       .  S
Fe727       O738   1.943       .  S
Fe728       O731   2.039       .  S
Fe728       O735   2.095       .  S
Fe728       O739   2.084       .  S
Fe728       O744   2.100       .  S
Fe728       O738   1.955       .  S
Fe729       O747   2.135       .  S
Fe729       O734   2.049       .  S
Fe729       O741   2.071       .  S
Fe729       O730   2.149       .  S
Fe729       O738   1.966       .  S
O730        C737   1.290       .  A
O731        C745   1.260       .  A
O732        C737   1.274       .  A
O733        C736   1.261       .  A
O734        C746   1.272       .  A
O735        C748   1.282       .  A
C736        O741   1.265       .  A
C736        C807   1.482       .  S
C737       C1899   1.510       .  S
O739        C742   1.265       .  A
O740        C742   1.259       .  A
C742       C1622   1.497       .  S
O743        C748   1.275       .  A
O744        C746   1.283       .  A
C745        O747   1.279       .  A
C745        C922   1.530       .  S
C746        C838   1.487       .  S
C748        C849   1.475       .  S
Fe749       O765   2.023       .  S
Fe749       O755   2.035       .  S
Fe749       O762   2.042       .  S
Fe749       O754   2.044       .  S
Fe749       O760   1.935       .  S
Fe750       O753   2.037       .  S
Fe750       O757   2.107       .  S
Fe750       O761   2.078       .  S
Fe750       O766   2.103       .  S
Fe750       O760   1.959       .  S
Fe751       O769   2.131       .  S
Fe751       O756   2.055       .  S
Fe751       O763   2.062       .  S
Fe751       O752   2.147       .  S
Fe751       O760   1.956       .  S
O752        C759   1.290       .  A
O753        C767   1.260       .  A
O754        C759   1.275       .  A
O755        C758   1.256       .  A
O756        C768   1.272       .  A
O757        C770   1.284       .  A
C758        O763   1.264       .  A
C758        C863   1.497       .  S
C759       C1720   1.508       .  S
O761        C764   1.263       .  A
O762        C764   1.258       .  A
C764       C1913   1.494       .  S
O765        C770   1.271       .  A
O766        C768   1.284       .  A
C767        O769   1.278       .  A
C767        C964   1.507       .  S
C768        C796   1.490       .  S
C770        C810   1.501       .  S
Fe771       O787   2.028       .  S
Fe771       O777   2.068       .  S
Fe771       O784   2.061       .  S
Fe771       O776   2.016       .  S
Fe771       O782   1.951       .  S
Fe772       O775   2.090       .  S
Fe772       O779   2.100       .  S
Fe772       O783   2.075       .  S
Fe772       O788   2.057       .  S
Fe772       O782   1.974       .  S
Fe773       O791   2.067       .  S
Fe773       O778   2.133       .  S
Fe773       O785   2.135       .  S
Fe773       O774   2.078       .  S
Fe773       O782   1.977       .  S
O774        C781   1.266       .  A
O775        C789   1.280       .  A
O776        C781   1.253       .  A
O777        C780   1.279       .  A
O778        C790   1.280       .  A
O779        C792   1.270       .  A
C780        O785   1.288       .  A
C780       C1090   1.510       .  S
C781        C880   1.481   1_545  S
O783        C786   1.276       .  A
O784        C786   1.278       .  A
C786        C824   1.476       .  S
O787        C792   1.255       .  A
O788        C790   1.266       .  A
C789        O791   1.273       .  A
C789        C793   1.493       .  S
C790       C1930   1.532       .  S
C792       C1157   1.503       .  S
C793        C794   1.419       .  A
C793        C798   1.412       .  A
C794        C795   1.413       .  A
C794        C799   1.452       .  S
C795        C796   1.410       .  A
C795        C802   1.452       .  S
C796        C797   1.418       .  A
C797        C798   1.415       .  A
C797        C800   1.452       .  S
C798        C801   1.451       .  S
C799        N806   1.157       .  T
C800        N805   1.158       .  T
C801        N803   1.157       .  T
C802        N804   1.157       .  T
C807        C808   1.410       .  A
C807        C812   1.409       .  A
C808        C809   1.417       .  A
C808        C813   1.450       .  S
C809        C810   1.425       .  A
C809        C816   1.451       .  S
C810        C811   1.425       .  A
C811        C812   1.401       .  A
C811        C814   1.455       .  S
C812        C815   1.456       .  S
C813        N820   1.158       .  T
C814        N819   1.158       .  T
C815        N817   1.157       .  T
C816        N818   1.157       .  T
C821        C822   1.417       .  A
C821        C826   1.433       .  A
C822        C823   1.411       .  A
C822        C827   1.451       .  S
C823        C824   1.409       .  A
C823        C830   1.443       .  S
C824        C825   1.399       .  A
C825        C826   1.404       .  A
C825        C828   1.454       .  S
C826        C829   1.451       .  S
C827        N834   1.157       .  T
C828        N833   1.157       .  T
C829        N831   1.157       .  T
C830        N832   1.155       .  T
C835        C836   1.410       .  A
C835        C840   1.419       .  A
C836        C837   1.412       .  A
C836        C841   1.451       .  S
C837        C838   1.418       .  A
C837        C844   1.452       .  S
C838        C839   1.410       .  A
C839        C840   1.412       .  A
C839        C842   1.452       .  S
C840        C843   1.452       .  S
C841        N848   1.158       .  T
C842        N847   1.158       .  T
C843        N845   1.157       .  T
C844        N846   1.157       .  T
C849        C850   1.410       .  A
C849        C854   1.400       .  A
C850        C851   1.411       .  A
C850        C855   1.445       .  S
C851        C852   1.416       .  A
C851        C858   1.451       .  S
C852        C853   1.434       .  A
C853        C854   1.408       .  A
C853        C856   1.451       .  S
C854        C857   1.452       .  S
C855        N862   1.155       .  T
C856        N861   1.157       .  T
C857        N859   1.156       .  T
C858        N860   1.157       .  T
C863        C864   1.418       .  A
C863        C868   1.432       .  A
C864        C865   1.407       .  A
C864        C869   1.451       .  S
C865        C866   1.410       .  A
C865        C872   1.451       .  S
C866        C867   1.399       .  A
C867        C868   1.404       .  A
C867        C870   1.455       .  S
C868        C871   1.450       .  S
C869        N876   1.158       .  T
C870        N875   1.157       .  T
C871        N873   1.156       .  T
C872        N874   1.156       .  T
C877        C878   1.417       .  A
C877        C882   1.399       .  A
C878        C879   1.409       .  A
C878        C883   1.451   1_455  S
C879        C880   1.406       .  A
C879        C886   1.449       .  S
C880        C881   1.423       .  A
C881        C882   1.403       .  A
C881        C884   1.448       .  S
C882        C885   1.453       .  S
C883        N890   1.157       .  T
C884        N889   1.156       .  T
C885        N887   1.157       .  T
C886        N888   1.157   1_565  T
C891        C892   1.412       .  A
C891        C896   1.415       .  A
C892        C893   1.401       .  A
C892        C897   1.457       .  S
C893        C894   1.420       .  A
C893        C900   1.454       .  S
C894        C895   1.417       .  A
C895        C896   1.415       .  A
C895        C898   1.451       .  S
C896        C899   1.450       .  S
C897        N904   1.157       .  T
C898        N903   1.157       .  T
C899        N901   1.158       .  T
C900        N902   1.158       .  T
C905        C906   1.412       .  A
C905        C910   1.412       .  A
C906        C907   1.412       .  A
C906        C911   1.450       .  S
C907        C908   1.412       .  A
C907        C914   1.451       .  S
C908        C909   1.413       .  A
C909        C910   1.413       .  A
C909        C912   1.450       .  S
C910        C913   1.451       .  S
C911        N918   1.157       .  T
C912        N917   1.157       .  T
C913        N915   1.157       .  T
C914        N916   1.157       .  T
C919        C920   1.416       .  A
C919        C924   1.410       .  A
C920        C921   1.429       .  A
C920        C925   1.449       .  S
C921        C922   1.424       .  A
C921        C928   1.449       .  S
C922        C923   1.430       .  A
C923        C924   1.416       .  A
C923        C926   1.453       .  S
C924        C927   1.453       .  S
C925        N932   1.157       .  T
C926        N931   1.157       .  T
C927        N929   1.157       .  T
C928        N930   1.158       .  T
C933        C934   1.409       .  A
C933        C938   1.421   1_556  A
C934        C935   1.411   1_655  A
C934        C939   1.451       .  S
C935        C936   1.419   1_556  A
C935        C942   1.452       .  S
C936        C937   1.408   1_455  A
C937        C938   1.410       .  A
C937        C940   1.452   1_655  S
C938        C941   1.453       .  S
C939        N946   1.157       .  T
C940        N945   1.157       .  T
C941        N943   1.157       .  T
C942        N944   1.157       .  T
C947        C948   1.414       .  A
C947        C952   1.412       .  A
C948        C949   1.402       .  A
C948        C953   1.453       .  S
C949        C950   1.419       .  A
C949        C956   1.456       .  S
C950        C951   1.425       .  A
C951        C952   1.418       .  A
C951        C954   1.449       .  S
C952        C955   1.452       .  S
C953        N960   1.158       .  T
C954        N959   1.159       .  T
C955        N957   1.156   1_554  T
C956        N958   1.156       .  T
C961        C962   1.420       .  A
C961        C966   1.424       .  A
C962        C963   1.430       .  A
C962        C967   1.448       .  S
C963        C964   1.419       .  A
C963        C970   1.448       .  S
C964        C965   1.413       .  A
C965        C966   1.413       .  A
C965        C968   1.454       .  S
C966        C969   1.454       .  S
C967        N974   1.157       .  T
C968        N973   1.157       .  T
C969        N971   1.158       .  T
C970        N972   1.157       .  T
C975        C976   1.429       .  A
C975        C980   1.419       .  A
C976        C977   1.400       .  A
C976        C981   1.453       .  S
C977        C978   1.404       .  A
C977        C984   1.457       .  S
C978        C979   1.413       .  A
C979        C980   1.415       .  A
C979        C982   1.449       .  S
C980        C983   1.451       .  S
C981        N988   1.158       .  T
C982        N987   1.158       .  T
C983        N985   1.157   1_556  T
C984        N986   1.157       .  T
C989        C990   1.412       .  A
C989        C994   1.418   1_556  A
C990        C991   1.416   1_545  A
C990        C995   1.450       .  S
C991        C992   1.416   1_556  A
C991        C998   1.451       .  S
C992        C993   1.410       .  A
C993        C994   1.417   1_565  A
C993        C996   1.449       .  S
C994        C997   1.451       .  S
C995       N1002   1.157       .  T
C996       N1001   1.157       .  T
C997        N999   1.157       .  T
C998       N1000   1.157       .  T
C1003      C1004   1.402       .  A
C1003      C1008   1.405       .  A
C1004      C1005   1.408       .  A
C1004      C1009   1.455       .  S
C1005      C1006   1.434       .  A
C1005      C1012   1.452       .  S
C1006      C1007   1.426       .  A
C1007      C1008   1.415       .  A
C1007      C1010   1.451       .  S
C1008      C1011   1.447       .  S
C1009      N1016   1.157       .  T
C1010      N1015   1.158   1_554  T
C1011      N1013   1.156   1_554  T
C1012      N1014   1.157       .  T
C1017      C1018   1.415       .  A
C1017      C1022   1.405       .  A
C1018      C1019   1.418       .  A
C1018      C1023   1.447       .  S
C1019      C1020   1.419       .  A
C1019      C1026   1.451       .  S
C1020      C1021   1.417       .  A
C1021      C1022   1.395       .  A
C1021      C1024   1.452       .  S
C1022      C1025   1.454       .  S
C1023      N1030   1.156   1_554  T
C1024      N1029   1.157       .  T
C1025      N1027   1.157       .  T
C1026      N1028   1.158   1_554  T
C1031      C1032   1.413       .  A
C1031      C1036   1.430       .  A
C1032      C1033   1.427       .  A
C1032      C1037   1.451       .  S
C1033      C1034   1.430       .  A
C1033      C1040   1.450       .  S
C1034      C1035   1.414       .  A
C1035      C1036   1.424       .  A
C1035      C1038   1.451       .  S
C1036      C1039   1.450       .  S
C1037      N1044   1.157       .  T
C1038      N1043   1.157       .  T
C1039      N1041   1.158       .  T
C1040      N1042   1.158       .  T
C1045      C1046   1.409       .  A
C1045      C1050   1.414       .  A
C1046      C1047   1.402       .  A
C1046      C1051   1.455       .  S
C1047      C1048   1.420       .  A
C1047      C1054   1.451       .  S
C1048      C1049   1.426       .  A
C1049      C1050   1.424       .  A
C1049      C1052   1.450       .  S
C1050      C1053   1.449       .  S
C1051      N1058   1.157       .  T
C1052      N1057   1.158   1_556  T
C1053      N1055   1.157   1_556  T
C1054      N1056   1.156       .  T
C1059      C1060   1.411       .  A
C1059      C1064   1.402       .  A
C1060      C1061   1.408       .  A
C1060      C1065   1.451       .  S
C1061      C1062   1.416       .  A
C1061      C1068   1.451       .  S
C1062      C1063   1.425       .  A
C1063      C1064   1.406       .  A
C1063      C1066   1.449       .  S
C1064      C1067   1.453       .  S
C1065      N1072   1.157   1_556  T
C1066      N1071   1.157       .  T
C1067      N1069   1.157       .  T
C1068      N1070   1.157   1_556  T
C1073      C1074   1.412       .  A
C1073      C1078   1.415   1_556  A
C1074      C1075   1.420       .  A
C1074      C1079   1.450       .  S
C1075      C1076   1.420   1_556  A
C1075      C1082   1.451       .  S
C1076      C1077   1.410       .  A
C1077      C1078   1.416       .  A
C1077      C1080   1.449       .  S
C1078      C1081   1.448       .  S
C1079      N1086   1.157       .  T
C1080      N1085   1.157       .  T
C1081      N1083   1.156       .  T
C1082      N1084   1.157       .  T
C1087      C1088   1.415   1_565  A
C1087      C1092   1.418   1_556  A
C1088      C1089   1.419   1_556  A
C1088      C1093   1.449       .  S
C1089      C1090   1.414       .  A
C1089      C1096   1.448       .  S
C1090      C1091   1.418   1_545  A
C1091      C1092   1.422       .  A
C1091      C1094   1.450       .  S
C1092      C1095   1.449       .  S
C1093      N1100   1.157       .  T
C1094      N1099   1.157       .  T
C1095      N1097   1.157       .  T
C1096      N1098   1.157       .  T
C1101      C1102   1.417   1_455  A
C1101      C1106   1.414       .  A
C1102      C1103   1.414       .  A
C1102      C1107   1.450       .  S
C1103      C1104   1.412   1_556  A
C1103      C1110   1.449       .  S
C1104      C1105   1.414   1_655  A
C1105      C1106   1.414   1_554  A
C1105      C1108   1.450       .  S
C1106      C1109   1.450       .  S
C1107      N1114   1.157       .  T
C1108      N1113   1.157       .  T
C1109      N1111   1.157       .  T
C1110      N1112   1.157       .  T
C1115      C1116   1.419       .  A
C1115      C1120   1.417       .  A
C1116      C1117   1.427       .  A
C1116      C1121   1.449       .  S
C1117      C1118   1.415       .  A
C1117      C1124   1.448       .  S
C1118      C1119   1.417       .  A
C1119      C1120   1.413       .  A
C1119      C1122   1.454       .  S
C1120      C1123   1.453       .  S
C1121      N1128   1.157       .  T
C1122      N1127   1.158       .  T
C1123      N1125   1.157       .  T
C1124      N1126   1.157       .  T
C1129      C1130   1.410       .  A
C1129      C1134   1.420       .  A
C1130      C1131   1.418       .  A
C1130      C1135   1.450       .  S
C1131      C1132   1.421       .  A
C1131      C1138   1.451       .  S
C1132      C1133   1.411       .  A
C1133      C1134   1.417       .  A
C1133      C1136   1.451       .  S
C1134      C1137   1.452       .  S
C1135      N1142   1.157       .  T
C1136      N1141   1.157       .  T
C1137      N1139   1.157       .  T
C1138      N1140   1.157       .  T
C1143      C1144   1.419       .  A
C1143      C1148   1.419       .  A
C1144      C1145   1.420       .  A
C1144      C1149   1.450       .  S
C1145      C1146   1.418       .  A
C1145      C1152   1.450       .  S
C1146      C1147   1.418       .  A
C1147      C1148   1.405       .  A
C1147      C1150   1.453       .  S
C1148      C1151   1.455       .  S
C1149      N1156   1.159       .  T
C1150      N1155   1.157   1_545  T
C1151      N1153   1.155       .  T
C1152      N1154   1.156       .  T
C1157      C1158   1.418   1_554  A
C1157      C1162   1.417       .  A
C1158      C1159   1.418       .  A
C1158      C1163   1.450       .  S
C1159      C1160   1.417       .  A
C1159      C1166   1.450       .  S
C1160      C1161   1.417       .  A
C1161      C1162   1.418   1_556  A
C1161      C1164   1.450       .  S
C1162      C1165   1.450       .  S
C1163      N1170   1.157       .  T
C1164      N1169   1.157   1_556  T
C1165      N1167   1.157       .  T
C1166      N1168   1.157       .  T
C1171      C1172   1.414       .  A
C1171      C1176   1.416   1_454  A
C1172      C1173   1.418       .  A
C1172      C1177   1.449       .  S
C1173      C1174   1.416   1_455  A
C1173      C1180   1.449       .  S
C1174      C1175   1.413       .  A
C1175      C1176   1.416   1_554  A
C1175      C1178   1.450       .  S
C1176      C1179   1.450       .  S
C1177      N1184   1.157       .  T
C1178      N1183   1.157       .  T
C1179      N1181   1.157       .  T
C1180      N1182   1.157       .  T
C1185      C1186   1.421       .  A
C1185      C1190   1.420       .  A
C1186      C1187   1.416       .  A
C1186      C1191   1.453       .  S
C1187      C1188   1.417       .  A
C1187      C1194   1.453       .  S
C1188      C1189   1.418       .  A
C1189      C1190   1.427       .  A
C1189      C1192   1.449       .  S
C1190      C1193   1.449       .  S
C1191      N1198   1.158       .  T
C1192      N1197   1.157       .  T
C1193      N1195   1.157       .  T
C1194      N1196   1.158       .  T
C1199      C1200   1.410       .  A
C1199      C1204   1.417       .  A
C1200      C1201   1.413       .  A
C1200      C1205   1.451       .  S
C1201      C1202   1.417       .  A
C1201      C1208   1.452       .  S
C1202      C1203   1.406       .  A
C1203      C1204   1.409       .  A
C1203      C1206   1.450       .  S
C1204      C1207   1.451       .  S
C1205      N1212   1.157       .  T
C1206      N1211   1.157       .  T
C1207      N1209   1.157       .  T
C1208      N1210   1.157       .  T
C1213      C1214   1.416       .  A
C1213      C1218   1.419       .  A
C1214      C1215   1.403       .  A
C1214      C1219   1.456       .  S
C1215      C1216   1.422       .  A
C1215      C1222   1.456       .  S
C1216      C1217   1.415       .  A
C1217      C1218   1.419       .  A
C1217      C1220   1.450       .  S
C1218      C1221   1.451       .  S
C1219      N1226   1.158       .  T
C1220      N1225   1.158       .  T
C1221      N1223   1.157       .  T
C1222      N1224   1.157       .  T
C1227      C1228   1.415       .  A
C1227      C1232   1.409       .  A
C1228      C1229   1.418       .  A
C1228      C1233   1.450       .  S
C1229      C1230   1.422       .  A
C1229      C1236   1.451       .  S
C1230      C1231   1.419       .  A
C1231      C1232   1.397       .  A
C1231      C1234   1.450       .  S
C1232      C1235   1.457   1_545  S
C1233      N1240   1.158       .  T
C1234      N1239   1.157       .  T
C1235      N1237   1.157       .  T
C1236      N1238   1.157       .  T
C1241      C1242   1.398       .  A
C1241      C1246   1.406       .  A
C1242      C1243   1.401       .  A
C1242      C1247   1.456       .  S
C1243      C1244   1.435       .  A
C1243      C1250   1.452       .  S
C1244      C1245   1.423       .  A
C1245      C1246   1.411       .  A
C1245      C1248   1.452       .  S
C1246      C1249   1.448       .  S
C1247      N1254   1.157       .  T
C1248      N1253   1.157       .  T
C1249      N1251   1.157       .  T
C1250      N1252   1.158       .  T
C1255      C1256   1.415   1_565  A
C1255      C1260   1.416       .  A
C1256      C1257   1.417       .  A
C1256      C1261   1.448       .  S
C1257      C1258   1.416   1_556  A
C1257      C1264   1.450       .  S
C1258      C1259   1.415   1_545  A
C1259      C1260   1.418   1_554  A
C1259      C1262   1.449       .  S
C1260      C1263   1.449       .  S
C1261      N1268   1.157       .  T
C1262      N1267   1.157       .  T
C1263      N1265   1.157       .  T
C1264      N1266   1.157       .  T
C1269      C1270   1.415       .  A
C1269      C1274   1.416   1_556  A
C1270      C1271   1.420   1_556  A
C1270      C1275   1.450       .  S
C1271      C1272   1.419       .  A
C1271      C1278   1.449       .  S
C1272      C1273   1.418       .  A
C1273      C1274   1.420       .  A
C1273      C1276   1.450       .  S
C1274      C1277   1.449       .  S
C1275      N1282   1.157       .  T
C1276      N1281   1.157       .  T
C1277      N1279   1.157       .  T
C1278      N1280   1.157       .  T
C1283      C1284   1.413       .  A
C1283      C1288   1.419       .  A
C1284      C1285   1.412       .  A
C1284      C1289   1.454       .  S
C1285      C1286   1.424       .  A
C1285      C1292   1.453       .  S
C1286      C1287   1.422       .  A
C1287      C1288   1.431       .  A
C1287      C1290   1.449       .  S
C1288      C1291   1.449       .  S
C1289      N1296   1.157       .  T
C1290      N1295   1.157       .  T
C1291      N1293   1.158       .  T
C1292      N1294   1.158       .  T
C1297      C1298   1.430       .  A
C1297      C1302   1.421       .  A
C1298      C1299   1.405       .  A
C1298      C1303   1.452       .  S
C1299      C1300   1.396       .  A
C1299      C1306   1.448       .  S
C1300      C1301   1.401       .  A
C1301      C1302   1.405       .  A
C1301      C1304   1.444       .  S
C1302      C1305   1.451       .  S
C1303      N1310   1.158       .  T
C1304      N1309   1.155       .  T
C1305      N1307   1.157       .  T
C1306      N1308   1.156       .  T
C1311      C1312   1.412       .  A
C1311      C1316   1.427       .  A
C1312      C1313   1.415       .  A
C1312      C1317   1.451       .  S
C1313      C1314   1.422       .  A
C1313      C1320   1.453       .  S
C1314      C1315   1.409       .  A
C1315      C1316   1.413       .  A
C1315      C1318   1.452       .  S
C1316      C1319   1.454       .  S
C1317      N1324   1.158       .  T
C1318      N1323   1.158       .  T
C1319      N1321   1.157       .  T
C1320      N1322   1.157       .  T
C1325      C1326   1.429       .  A
C1325      C1330   1.427       .  A
C1326      C1327   1.399       .  A
C1326      C1331   1.452       .  S
C1327      C1328   1.392       .  A
C1327      C1334   1.447       .  S
C1328      C1329   1.402       .  A
C1329      C1330   1.414       .  A
C1329      C1332   1.448       .  S
C1330      C1333   1.450       .  S
C1331      N1338   1.158       .  T
C1332      N1337   1.158       .  T
C1333      N1335   1.157       .  T
C1334      N1336   1.154       .  T
C1339      C1340   1.421       .  A
C1339      C1344   1.424       .  A
C1340      C1341   1.429       .  A
C1340      C1345   1.449       .  S
C1341      C1342   1.418       .  A
C1341      C1348   1.449       .  S
C1342      C1343   1.412       .  A
C1343      C1344   1.414       .  A
C1343      C1346   1.454       .  S
C1344      C1347   1.451       .  S
C1345      N1352   1.157       .  T
C1346      N1351   1.158       .  T
C1347      N1349   1.156       .  T
C1348      N1350   1.157       .  T
C1353      C1354   1.413       .  A
C1353      C1358   1.428       .  A
C1354      C1355   1.421       .  A
C1354      C1359   1.450       .  S
C1355      C1356   1.430       .  A
C1355      C1362   1.454       .  S
C1356      C1357   1.412       .  A
C1357      C1358   1.418       .  A
C1357      C1360   1.450       .  S
C1358      C1361   1.453       .  S
C1359      N1366   1.158       .  T
C1360      N1365   1.158       .  T
C1361      N1363   1.156       .  T
C1362      N1364   1.157       .  T
C1367      C1368   1.415       .  A
C1367      C1372   1.415       .  A
C1368      C1369   1.417       .  A
C1368      C1373   1.450       .  S
C1369      C1370   1.415       .  A
C1369      C1376   1.448       .  S
C1370      C1371   1.418       .  A
C1371      C1372   1.419       .  A
C1371      C1374   1.449       .  S
C1372      C1375   1.450       .  S
C1373      N1380   1.158       .  T
C1374      N1379   1.157       .  T
C1375      N1377   1.157       .  T
C1376      N1378   1.157       .  T
C1381      C1382   1.418       .  A
C1381      C1386   1.418       .  A
C1382      C1383   1.419       .  A
C1382      C1387   1.449       .  S
C1383      C1384   1.415       .  A
C1383      C1390   1.450       .  S
C1384      C1385   1.415       .  A
C1385      C1386   1.417       .  A
C1385      C1388   1.448       .  S
C1386      C1389   1.451       .  S
C1387      N1394   1.158       .  T
C1388      N1393   1.157       .  T
C1389      N1391   1.157       .  T
C1390      N1392   1.157       .  T
C1395      C1396   1.420       .  A
C1395      C1400   1.421       .  A
C1396      C1397   1.428   1_655  A
C1396      C1401   1.448       .  S
C1397      C1398   1.416       .  A
C1397      C1404   1.449       .  S
C1398      C1399   1.419       .  A
C1399      C1400   1.417   1_455  A
C1399      C1402   1.453       .  S
C1400      C1403   1.454       .  S
C1401      N1408   1.157       .  T
C1402      N1407   1.158       .  T
C1403      N1405   1.158       .  T
C1404      N1406   1.157       .  T
C1409      C1410   1.412       .  A
C1409      C1414   1.413       .  A
C1410      C1411   1.405       .  A
C1410      C1415   1.452   1_565  S
C1411      C1412   1.423       .  A
C1411      C1418   1.455       .  S
C1412      C1413   1.426       .  A
C1413      C1414   1.424       .  A
C1413      C1416   1.449       .  S
C1414      C1417   1.449       .  S
C1415      N1422   1.156       .  T
C1416      N1421   1.157       .  T
C1417      N1419   1.157       .  T
C1418      N1420   1.157       .  T
C1423      C1424   1.410       .  A
C1423      C1428   1.413       .  A
C1424      C1425   1.400       .  A
C1424      C1429   1.456       .  S
C1425      C1426   1.419       .  A
C1425      C1432   1.450       .  S
C1426      C1427   1.423       .  A
C1427      C1428   1.422       .  A
C1427      C1430   1.449       .  S
C1428      C1431   1.449       .  S
C1429      N1436   1.157       .  T
C1430      N1435   1.157       .  T
C1431      N1433   1.158       .  T
C1432      N1434   1.156       .  T
C1437      C1438   1.417       .  A
C1437      C1442   1.411       .  A
C1438      C1439   1.415       .  A
C1438      C1443   1.451       .  S
C1439      C1440   1.411       .  A
C1439      C1446   1.450       .  S
C1440      C1441   1.417       .  A
C1441      C1442   1.414       .  A
C1441      C1444   1.452       .  S
C1442      C1445   1.451       .  S
C1443      N1450   1.158       .  T
C1444      N1449   1.158       .  T
C1445      N1447   1.157       .  T
C1446      N1448   1.157       .  T
C1451      C1452   1.416       .  A
C1451      C1456   1.415       .  A
C1452      C1453   1.420       .  A
C1452      C1457   1.450       .  S
C1453      C1454   1.416       .  A
C1453      C1460   1.449       .  S
C1454      C1455   1.417       .  A
C1455      C1456   1.415       .  A
C1455      C1458   1.449       .  S
C1456      C1459   1.450       .  S
C1457      N1464   1.157       .  T
C1458      N1463   1.157       .  T
C1459      N1461   1.157       .  T
C1460      N1462   1.157       .  T
C1465      C1466   1.415       .  A
C1465      C1470   1.417       .  A
C1466      C1467   1.416       .  A
C1466      C1471   1.449       .  S
C1467      C1468   1.412       .  A
C1467      C1474   1.447       .  S
C1468      C1469   1.413       .  A
C1469      C1470   1.416       .  A
C1469      C1472   1.450       .  S
C1470      C1473   1.450       .  S
C1471      N1478   1.157       .  T
C1472      N1477   1.157       .  T
C1473      N1475   1.157       .  T
C1474      N1476   1.156       .  T
C1479      C1480   1.419       .  A
C1479      C1484   1.419       .  A
C1480      C1481   1.414   1_545  A
C1480      C1485   1.453       .  S
C1481      C1482   1.417       .  A
C1481      C1488   1.454       .  S
C1482      C1483   1.418       .  A
C1483      C1484   1.428   1_565  A
C1483      C1486   1.449       .  S
C1484      C1487   1.449       .  S
C1485      N1492   1.157       .  T
C1486      N1491   1.157       .  T
C1487      N1489   1.157       .  T
C1488      N1490   1.158       .  T
C1493      C1494   1.405       .  A
C1493      C1498   1.399       .  A
C1494      C1495   1.411       .  A
C1494      C1499   1.447       .  S
C1495      C1496   1.423       .  A
C1495      C1502   1.452       .  S
C1496      C1497   1.432       .  A
C1497      C1498   1.404       .  A
C1497      C1500   1.453       .  S
C1498      C1501   1.453       .  S
C1499      N1506   1.156       .  T
C1500      N1505   1.157   1_455  T
C1501      N1503   1.157       .  T
C1502      N1504   1.158       .  T
C1507      C1508   1.408       .  A
C1507      C1512   1.415       .  A
C1508      C1509   1.397       .  A
C1508      C1513   1.454       .  S
C1509      C1510   1.418       .  A
C1509      C1516   1.453       .  S
C1510      C1511   1.417       .  A
C1511      C1512   1.415       .  A
C1511      C1514   1.451       .  S
C1512      C1515   1.449       .  S
C1513      N1520   1.158       .  T
C1514      N1519   1.158       .  T
C1515      N1517   1.156       .  T
C1516      N1518   1.157       .  T
C1521      C1522   1.407       .  A
C1521      C1526   1.413       .  A
C1522      C1523   1.400       .  A
C1522      C1527   1.457       .  S
C1523      C1524   1.426       .  A
C1523      C1530   1.454       .  S
C1524      C1525   1.419       .  A
C1525      C1526   1.417       .  A
C1525      C1528   1.450       .  S
C1526      C1529   1.450       .  S
C1527      N1534   1.157       .  T
C1528      N1533   1.157       .  T
C1529      N1531   1.157       .  T
C1530      N1532   1.157       .  T
C1535      C1536   1.426       .  A
C1535      C1540   1.416       .  A
C1536      C1537   1.406       .  A
C1536      C1541   1.451       .  S
C1537      C1538   1.402       .  A
C1537      C1544   1.453       .  S
C1538      C1539   1.410       .  A
C1539      C1540   1.411       .  A
C1539      C1542   1.449       .  S
C1540      C1543   1.451       .  S
C1541      N1548   1.157       .  T
C1542      N1547   1.156       .  T
C1543      N1545   1.157       .  T
C1544      N1546   1.157       .  T
C1549      C1550   1.422       .  A
C1549      C1554   1.410       .  A
C1550      C1551   1.412       .  A
C1550      C1555   1.453       .  S
C1551      C1552   1.410       .  A
C1551      C1558   1.452       .  S
C1552      C1553   1.422       .  A
C1553      C1554   1.414       .  A
C1553      C1556   1.453       .  S
C1554      C1557   1.451       .  S
C1555      N1562   1.157       .  T
C1556      N1561   1.158       .  T
C1557      N1559   1.158       .  T
C1558      N1560   1.157       .  T
C1563      C1564   1.416       .  A
C1563      C1568   1.415       .  A
C1564      C1565   1.415       .  A
C1564      C1569   1.450       .  S
C1565      C1566   1.413       .  A
C1565      C1572   1.448       .  S
C1566      C1567   1.414       .  A
C1567      C1568   1.416       .  A
C1567      C1570   1.450       .  S
C1568      C1571   1.450       .  S
C1569      N1576   1.157       .  T
C1570      N1575   1.157       .  T
C1571      N1573   1.157       .  T
C1572      N1574   1.157       .  T
C1577      C1578   1.416       .  A
C1577      C1582   1.414       .  A
C1578      C1579   1.418       .  A
C1578      C1583   1.450       .  S
C1579      C1580   1.416       .  A
C1579      C1586   1.450       .  S
C1580      C1581   1.416       .  A
C1581      C1582   1.419       .  A
C1581      C1584   1.449       .  S
C1582      C1585   1.449       .  S
C1583      N1590   1.157       .  T
C1584      N1589   1.157       .  T
C1585      N1587   1.157       .  T
C1586      N1588   1.158       .  T
C1591      C1592   1.416       .  A
C1591      C1596   1.408       .  A
C1592      C1593   1.430       .  A
C1592      C1597   1.448       .  S
C1593      C1594   1.422       .  A
C1593      C1600   1.448       .  S
C1594      C1595   1.429       .  A
C1595      C1596   1.413       .  A
C1595      C1598   1.453       .  S
C1596      C1599   1.453       .  S
C1597      N1604   1.158       .  T
C1598      N1603   1.158       .  T
C1599      N1601   1.157       .  T
C1600      N1602   1.157       .  T
C1605      C1606   1.415       .  A
C1605      C1610   1.415       .  A
C1606      C1607   1.420       .  A
C1606      C1611   1.449       .  S
C1607      C1608   1.418       .  A
C1607      C1614   1.450       .  S
C1608      C1609   1.417       .  A
C1609      C1610   1.418       .  A
C1609      C1612   1.449       .  S
C1610      C1613   1.450       .  S
C1611      N1618   1.157       .  T
C1612      N1617   1.157       .  T
C1613      N1615   1.157       .  T
C1614      N1616   1.157       .  T
C1619      C1620   1.418       .  A
C1619      C1624   1.415       .  A
C1620      C1621   1.416       .  A
C1620      C1625   1.448       .  S
C1621      C1622   1.412       .  A
C1621      C1628   1.450       .  S
C1622      C1623   1.415       .  A
C1623      C1624   1.416       .  A
C1623      C1626   1.449       .  S
C1624      C1627   1.450       .  S
C1625      N1632   1.157       .  T
C1626      N1631   1.157       .  T
C1627      N1629   1.157       .  T
C1628      N1630   1.157       .  T
C1633      C1634   1.421       .  A
C1633      C1638   1.409       .  A
C1634      C1635   1.415   1_455  A
C1634      C1639   1.451       .  S
C1635      C1636   1.413       .  A
C1635      C1642   1.451       .  S
C1636      C1637   1.425       .  A
C1637      C1638   1.413   1_655  A
C1637      C1640   1.453       .  S
C1638      C1641   1.452       .  S
C1639      N1646   1.157       .  T
C1640      N1645   1.157       .  T
C1641      N1643   1.158       .  T
C1642      N1644   1.158       .  T
C1647      C1648   1.413       .  A
C1647      C1652   1.414       .  A
C1648      C1649   1.418       .  A
C1648      C1653   1.450       .  S
C1649      C1650   1.422       .  A
C1649      C1656   1.449       .  S
C1650      C1651   1.420       .  A
C1651      C1652   1.418       .  A
C1651      C1654   1.450       .  S
C1652      C1655   1.447       .  S
C1653      N1660   1.157       .  T
C1654      N1659   1.157       .  T
C1655      N1657   1.156       .  T
C1656      N1658   1.157       .  T
C1661      C1662   1.414       .  A
C1661      C1666   1.410       .  A
C1662      C1663   1.417       .  A
C1662      C1667   1.451       .  S
C1663      C1664   1.416       .  A
C1663      C1670   1.450       .  S
C1664      C1665   1.417       .  A
C1665      C1666   1.416       .  A
C1665      C1668   1.450       .  S
C1666      C1669   1.449       .  S
C1667      N1674   1.157       .  T
C1668      N1673   1.157       .  T
C1669      N1671   1.157       .  T
C1670      N1672   1.157       .  T
C1675      C1676   1.410       .  A
C1675      C1680   1.416       .  A
C1676      C1677   1.419       .  A
C1676      C1681   1.454       .  S
C1677      C1678   1.432       .  A
C1677      C1684   1.453       .  S
C1678      C1679   1.424       .  A
C1679      C1680   1.429       .  A
C1679      C1682   1.449       .  S
C1680      C1683   1.449       .  S
C1681      N1688   1.157       .  T
C1682      N1687   1.157       .  T
C1683      N1685   1.157       .  T
C1684      N1686   1.158       .  T
C1689      C1690   1.414       .  A
C1689      C1694   1.412       .  A
C1690      C1691   1.403       .  A
C1690      C1695   1.457       .  S
C1691      C1692   1.422       .  A
C1691      C1698   1.454       .  S
C1692      C1693   1.425       .  A
C1693      C1694   1.420       .  A
C1693      C1696   1.450       .  S
C1694      C1697   1.450       .  S
C1695      N1702   1.157       .  T
C1696      N1701   1.157       .  T
C1697      N1699   1.158       .  T
C1698      N1700   1.157       .  T
C1703      C1704   1.415       .  A
C1703      C1708   1.416       .  A
C1704      C1705   1.417       .  A
C1704      C1709   1.450       .  S
C1705      C1706   1.416       .  A
C1705      C1712   1.450       .  S
C1706      C1707   1.416       .  A
C1707      C1708   1.418       .  A
C1707      C1710   1.448       .  S
C1708      C1711   1.450       .  S
C1709      N1716   1.157       .  T
C1710      N1715   1.157       .  T
C1711      N1713   1.157       .  T
C1712      N1714   1.157       .  T
C1717      C1718   1.416       .  A
C1717      C1722   1.416       .  A
C1718      C1719   1.419       .  A
C1718      C1723   1.450       .  S
C1719      C1720   1.418       .  A
C1719      C1726   1.450       .  S
C1720      C1721   1.415       .  A
C1721      C1722   1.419       .  A
C1721      C1724   1.450       .  S
C1722      C1725   1.449       .  S
C1723      N1730   1.157       .  T
C1724      N1729   1.157       .  T
C1725      N1727   1.157       .  T
C1726      N1728   1.158       .  T
C1731      C1732   1.414       .  A
C1731      C1736   1.425       .  A
C1732      C1733   1.421       .  A
C1732      C1737   1.451       .  S
C1733      C1734   1.425       .  A
C1733      C1740   1.452       .  S
C1734      C1735   1.414       .  A
C1735      C1736   1.421       .  A
C1735      C1738   1.451       .  S
C1736      C1739   1.452       .  S
C1737      N1744   1.158       .  T
C1738      N1743   1.157       .  T
C1739      N1741   1.157       .  T
C1740      N1742   1.157       .  T
C1745      C1746   1.405       .  A
C1745      C1750   1.413       .  A
C1746      C1747   1.401       .  A
C1746      C1751   1.456       .  S
C1747      C1748   1.429       .  A
C1747      C1754   1.451       .  S
C1748      C1749   1.422       .  A
C1749      C1750   1.417       .  A
C1749      C1752   1.450       .  S
C1750      C1753   1.450       .  S
C1751      N1758   1.158       .  T
C1752      N1757   1.158       .  T
C1753      N1755   1.157       .  T
C1754      N1756   1.155       .  T
C1759      C1760   1.416       .  A
C1759      C1764   1.413       .  A
C1760      C1761   1.417       .  A
C1760      C1765   1.449       .  S
C1761      C1762   1.414       .  A
C1761      C1768   1.449       .  S
C1762      C1763   1.417       .  A
C1763      C1764   1.417       .  A
C1763      C1766   1.449       .  S
C1764      C1767   1.450       .  S
C1765      N1772   1.157       .  T
C1766      N1771   1.157       .  T
C1767      N1769   1.157       .  T
C1768      N1770   1.157       .  T
C1773      C1774   1.418       .  A
C1773      C1778   1.416       .  A
C1774      C1775   1.417       .  A
C1774      C1779   1.449       .  S
C1775      C1776   1.416       .  A
C1775      C1782   1.451       .  S
C1776      C1777   1.415       .  A
C1777      C1778   1.419       .  A
C1777      C1780   1.449       .  S
C1778      C1781   1.449       .  S
C1779      N1786   1.157       .  T
C1780      N1785   1.157       .  T
C1781      N1783   1.157       .  T
C1782      N1784   1.157       .  T
C1787      C1788   1.411       .  A
C1787      C1792   1.411       .  A
C1788      C1789   1.407       .  A
C1788      C1793   1.456       .  S
C1789      C1790   1.427       .  A
C1789      C1796   1.454       .  S
C1790      C1791   1.425       .  A
C1791      C1792   1.418       .  A
C1791      C1794   1.450       .  S
C1792      C1795   1.450       .  S
C1793      N1800   1.157       .  T
C1794      N1799   1.157       .  T
C1795      N1797   1.158       .  T
C1796      N1798   1.158       .  T
C1801      C1802   1.407       .  A
C1801      C1806   1.416       .  A
C1802      C1803   1.406       .  A
C1802      C1807   1.453       .  S
C1803      C1804   1.412       .  A
C1803      C1810   1.443       .  S
C1804      C1805   1.411       .  A
C1805      C1806   1.408       .  A
C1805      C1808   1.452       .  S
C1806      C1809   1.450       .  S
C1807      N1814   1.157       .  T
C1808      N1813   1.158       .  T
C1809      N1811   1.157       .  T
C1810      N1812   1.153       .  T
C1815      C1816   1.418       .  A
C1815      C1820   1.418       .  A
C1816      C1817   1.417       .  A
C1816      C1821   1.448       .  S
C1817      C1818   1.412       .  A
C1817      C1824   1.448       .  S
C1818      C1819   1.417       .  A
C1819      C1820   1.417       .  A
C1819      C1822   1.451       .  S
C1820      C1823   1.451       .  S
C1821      N1828   1.157       .  T
C1822      N1827   1.158       .  T
C1823      N1825   1.157       .  T
C1824      N1826   1.157       .  T
C1829      C1830   1.417       .  A
C1829      C1834   1.417       .  A
C1830      C1831   1.421       .  A
C1830      C1835   1.449       .  S
C1831      C1832   1.417       .  A
C1831      C1838   1.450       .  S
C1832      C1833   1.409       .  A
C1833      C1834   1.416       .  A
C1833      C1836   1.443       .  S
C1834      C1837   1.450       .  S
C1835      N1842   1.158       .  T
C1836      N1841   1.155       .  T
C1837      N1839   1.157       .  T
C1838      N1840   1.157       .  T
C1843      C1844   1.406       .  A
C1843      C1848   1.416       .  A
C1844      C1845   1.414       .  A
C1844      C1849   1.451       .  S
C1845      C1846   1.431       .  A
C1845      C1852   1.454       .  S
C1846      C1847   1.424       .  A
C1847      C1848   1.427       .  A
C1847      C1850   1.449       .  S
C1848      C1851   1.450       .  S
C1849      N1856   1.157       .  T
C1850      N1855   1.158       .  T
C1851      N1853   1.157       .  T
C1852      N1854   1.157       .  T
C1857      C1858   1.427       .  A
C1857      C1862   1.424       .  A
C1858      C1859   1.400       .  A
C1858      C1863   1.453       .  S
C1859      C1860   1.403       .  A
C1859      C1866   1.455       .  S
C1860      C1861   1.408       .  A
C1861      C1862   1.415       .  A
C1861      C1864   1.450       .  S
C1862      C1865   1.450       .  S
C1863      N1870   1.157       .  T
C1864      N1869   1.157       .  T
C1865      N1867   1.158       .  T
C1866      N1868   1.158       .  T
C1871      C1872   1.412       .  A
C1871      C1876   1.404       .  A
C1872      C1873   1.413       .  A
C1872      C1877   1.447       .  S
C1873      C1874   1.414       .  A
C1873      C1880   1.451       .  S
C1874      C1875   1.426       .  A
C1875      C1876   1.411       .  A
C1875      C1878   1.452       .  S
C1876      C1879   1.449       .  S
C1877      N1884   1.155       .  T
C1878      N1883   1.157       .  T
C1879      N1881   1.156       .  T
C1880      N1882   1.157       .  T
C1885      C1886   1.413       .  A
C1885      C1890   1.425       .  A
C1886      C1887   1.419   1_545  A
C1886      C1891   1.451       .  S
C1887      C1888   1.425       .  A
C1887      C1894   1.452       .  S
C1888      C1889   1.414       .  A
C1889      C1890   1.423   1_565  A
C1889      C1892   1.450       .  S
C1890      C1893   1.451       .  S
C1891      N1898   1.157       .  T
C1892      N1897   1.157       .  T
C1893      N1895   1.158       .  T
C1894      N1896   1.157       .  T
C1899      C1900   1.414       .  A
C1899      C1904   1.415       .  A
C1900      C1901   1.418       .  A
C1900      C1905   1.447       .  S
C1901      C1902   1.418       .  A
C1901      C1908   1.449       .  S
C1902      C1903   1.417       .  A
C1903      C1904   1.420       .  A
C1903      C1906   1.449       .  S
C1904      C1907   1.449       .  S
C1905      N1912   1.156       .  T
C1906      N1911   1.157       .  T
C1907      N1909   1.157       .  T
C1908      N1910   1.157       .  T
C1913      C1914   1.414       .  A
C1913      C1918   1.415       .  A
C1914      C1915   1.416       .  A
C1914      C1919   1.450       .  S
C1915      C1916   1.417       .  A
C1915      C1922   1.450       .  S
C1916      C1917   1.413       .  A
C1917      C1918   1.415       .  A
C1917      C1920   1.450       .  S
C1918      C1921   1.450       .  S
C1919      N1926   1.157       .  T
C1920      N1925   1.157       .  T
C1921      N1923   1.157       .  T
C1922      N1924   1.157       .  T
C1927      C1928   1.418       .  A
C1927      C1932   1.414       .  A
C1928      C1929   1.431       .  A
C1928      C1933   1.450       .  S
C1929      C1930   1.423       .  A
C1929      C1936   1.446       .  S
C1930      C1931   1.428       .  A
C1931      C1932   1.419       .  A
C1931      C1934   1.452       .  S
C1932      C1935   1.453       .  S
C1933      N1940   1.158       .  T
C1934      N1939   1.158       .  T
C1935      N1937   1.157       .  T
C1936      N1938   1.157       .  T
C1941      C1942   1.417       .  A
C1941      C1946   1.416   1_655  A
C1942      C1943   1.420       .  A
C1942      C1947   1.451       .  S
C1943      C1944   1.415   1_655  A
C1943      C1950   1.446       .  S
C1944      C1945   1.417       .  A
C1945      C1946   1.421       .  A
C1945      C1948   1.449       .  S
C1946      C1949   1.449       .  S
C1947      N1954   1.157       .  T
C1948      N1953   1.157       .  T
C1949      N1951   1.157       .  T
C1950      N1952   1.156       .  T
C1955      C1956   1.418       .  A
C1955      C1960   1.414       .  A
C1956      C1957   1.419       .  A
C1956      C1961   1.450       .  S
C1957      C1958   1.415       .  A
C1957      C1964   1.450       .  S
C1958      C1959   1.417       .  A
C1959      C1960   1.419       .  A
C1959      C1962   1.450       .  S
C1960      C1963   1.449       .  S
C1961      N1968   1.157       .  T
C1962      N1967   1.157       .  T
C1963      N1965   1.157       .  T
C1964      N1966   1.157       .  T
C1969      C1970   1.421       .  A
C1969      C1974   1.428       .  A
C1970      C1971   1.429       .  A
C1970      C1975   1.449       .  S
C1971      C1972   1.420       .  A
C1971      C1978   1.449       .  S
C1972      C1973   1.410       .  A
C1973      C1974   1.411       .  A
C1973      C1976   1.454       .  S
C1974      C1977   1.453       .  S
C1975      N1982   1.157       .  T
C1976      N1981   1.157       .  T
C1977      N1979   1.158       .  T
C1978      N1980   1.158       .  T
C1983      C1984   1.422       .  A
C1983      C1988   1.410       .  A
C1984      C1985   1.415       .  A
C1984      C1989   1.452       .  S
C1985      C1986   1.408       .  A
C1985      C1992   1.450       .  S
C1986      C1987   1.422       .  A
C1987      C1988   1.416       .  A
C1987      C1990   1.452       .  S
C1988      C1991   1.451       .  S
C1989      N1996   1.157       .  T
C1990      N1995   1.157       .  T
C1991      N1993   1.158       .  T
C1992      N1994   1.157       .  T
C1997      C1998   1.417       .  A
C1997      C2002   1.418       .  A
C1998      C1999   1.418       .  A
C1998      C2003   1.449       .  S
C1999      C2000   1.417       .  A
C1999      C2006   1.450       .  S
C2000      C2001   1.414       .  A
C2001      C2002   1.421       .  A
C2001      C2004   1.449       .  S
C2002      C2005   1.449       .  S
C2003      N2010   1.157       .  T
C2004      N2009   1.157       .  T
C2005      N2007   1.157       .  T
C2006      N2008   1.157       .  T
C2011      C2012   1.416       .  A
C2011      C2016   1.415       .  A
C2012      C2013   1.419       .  A
C2012      C2017   1.449       .  S
C2013      C2014   1.416       .  A
C2013      C2020   1.450       .  S
C2014      C2015   1.417       .  A
C2015      C2016   1.416       .  A
C2015      C2018   1.450       .  S
C2016      C2019   1.451       .  S
C2017      N2024   1.157       .  T
C2018      N2023   1.157       .  T
C2019      N2021   1.157       .  T
C2020      N2022   1.157       .  T
C2025      C2026   1.413       .  A
C2025      C2030   1.432   1_455  A
C2026      C2027   1.424       .  A
C2026      C2031   1.451       .  S
C2027      C2028   1.429   1_455  A
C2027      C2034   1.449       .  S
C2028      C2029   1.411       .  A
C2029      C2030   1.424       .  A
C2029      C2032   1.451       .  S
C2030      C2033   1.451       .  S
C2031      N2038   1.158       .  T
C2032      N2037   1.158       .  T
C2033      N2035   1.157       .  T
C2034      N2036   1.157       .  T
C2039      C2040   1.420       .  A
C2039      C2044   1.423       .  A
C2040      C2041   1.419       .  A
C2040      C2045   1.450       .  S
C2041      C2042   1.412       .  A
C2041      C2048   1.447       .  S
C2042      C2043   1.400       .  A
C2043      C2044   1.396       .  A
C2043      C2046   1.452       .  S
C2044      C2047   1.452       .  S
C2045      N2052   1.157       .  T
C2046      N2051   1.157       .  T
C2047      N2049   1.157   1_545  T
C2048      N2050   1.157       .  T
C2053      C2054   1.415   1_545  A
C2053      C2058   1.415       .  A
C2054      C2055   1.417       .  A
C2054      C2059   1.450       .  S
C2055      C2056   1.415       .  A
C2055      C2062   1.450       .  S
C2056      C2057   1.416   1_565  A
C2057      C2058   1.416       .  A
C2057      C2060   1.449       .  S
C2058      C2061   1.451       .  S
C2059      N2066   1.157       .  T
C2060      N2065   1.157       .  T
C2061      N2063   1.157       .  T
C2062      N2064   1.157       .  T
C2067      C2068   1.414   1_455  A
C2067      C2072   1.416       .  A
C2068      C2069   1.418       .  A
C2068      C2073   1.449       .  S
C2069      C2070   1.415       .  A
C2069      C2076   1.449       .  S
C2070      C2071   1.417       .  A
C2071      C2072   1.414   1_655  A
C2071      C2074   1.449   1_655  S
C2072      C2075   1.452       .  S
C2073      N2080   1.157       .  T
C2074      N2079   1.157       .  T
C2075      N2077   1.157       .  T
C2076      N2078   1.157       .  T
C2081      C2082   1.438       .  A
C2081      C2086   1.426       .  A
C2082      C2083   1.419       .  A
C2082      C2087   1.453       .  S
C2083      C2084   1.404       .  A
C2083      C2090   1.453       .  S
C2084      C2085   1.415       .  A
C2085      C2086   1.429       .  A
C2085      C2088   1.450       .  S
C2086      C2089   1.449       .  S
C2087      N2094   1.157       .  T
C2088      N2093   1.157       .  T
C2089      N2091   1.158       .  T
C2090      N2092   1.157       .  T
C2095      C2096   1.427       .  A
C2095      C2100   1.415       .  A
C2096      C2097   1.407       .  A
C2096      C2101   1.450       .  S
C2097      C2098   1.401       .  A
C2097      C2104   1.450       .  S
C2098      C2099   1.411       .  A
C2099      C2100   1.411       .  A
C2099      C2102   1.448       .  S
C2100      C2103   1.451       .  S
C2101      N2108   1.156       .  T
C2102      N2107   1.155       .  T
C2103      N2105   1.158       .  T
C2104      N2106   1.156       .  T
C2109      C2110   1.412       .  A
C2109      C2114   1.422       .  A
C2110      C2111   1.417       .  A
C2110      C2115   1.451       .  S
C2111      C2112   1.422       .  A
C2111      C2118   1.451       .  S
C2112      C2113   1.413       .  A
C2113      C2114   1.419       .  A
C2113      C2116   1.451       .  S
C2114      C2117   1.451       .  S
C2115      N2122   1.157       .  T
C2116      N2121   1.157       .  T
C2117      N2119   1.157       .  T
C2118      N2120   1.157       .  T
C2123      C2124   1.414       .  A
C2123      C2128   1.418       .  A
C2124      C2125   1.417       .  A
C2124      C2129   1.450       .  S
C2125      C2126   1.416       .  A
C2125      C2132   1.449       .  S
C2126      C2127   1.413       .  A
C2127      C2128   1.417       .  A
C2127      C2130   1.450       .  S
C2128      C2131   1.450       .  S
C2129      N2136   1.157       .  T
C2130      N2135   1.157       .  T
C2131      N2133   1.157       .  T
C2132      N2134   1.157       .  T
C2137      C2138   1.417       .  A
C2137      C2142   1.417       .  A
C2138      C2139   1.418       .  A
C2138      C2143   1.449       .  S
C2139      C2140   1.416       .  A
C2139      C2146   1.450       .  S
C2140      C2141   1.414       .  A
C2141      C2142   1.419       .  A
C2141      C2144   1.450       .  S
C2142      C2145   1.447       .  S
C2143      N2150   1.157       .  T
C2144      N2149   1.157       .  T
C2145      N2147   1.157       .  T
C2146      N2148   1.158       .  T
C2151      C2152   1.419       .  A
C2151      C2156   1.418       .  A
C2152      C2153   1.419   1_545  A
C2152      C2157   1.453       .  S
C2153      C2154   1.420       .  A
C2153      C2160   1.453       .  S
C2154      C2155   1.419       .  A
C2155      C2156   1.430   1_565  A
C2155      C2158   1.447       .  S
C2156      C2159   1.448       .  S
C2157      N2164   1.157       .  T
C2158      N2163   1.157       .  T
C2159      N2161   1.157       .  T
C2160      N2162   1.157       .  T
C2165      C2166   1.420       .  A
C2165      C2170   1.420       .  A
C2166      C2167   1.415       .  A
C2166      C2171   1.450       .  S
C2167      C2168   1.412       .  A
C2167      C2174   1.451       .  S
C2168      C2169   1.409       .  A
C2169      C2170   1.398       .  A
C2169      C2172   1.456   1_655  S
C2170      C2173   1.451       .  S
C2171      N2178   1.157       .  T
C2172      N2177   1.157       .  T
C2173      N2175   1.155   1_545  T
C2174      N2176   1.157       .  T
C2179      C2180   1.411       .  A
C2179      C2184   1.401       .  A
C2180      C2181   1.411       .  A
C2180      C2185   1.451       .  S
C2181      C2182   1.416       .  A
C2181      C2188   1.449       .  S
C2182      C2183   1.429       .  A
C2183      C2184   1.407       .  A
C2183      C2186   1.449       .  S
C2184      C2187   1.451       .  S
C2185      N2192   1.157   1_655  T
C2186      N2191   1.156       .  T
C2187      N2189   1.156       .  T
C2188      N2190   1.156       .  T
C2193      C2194   1.416       .  A
C2193      C2198   1.417   1_565  A
C2194      C2195   1.415       .  A
C2194      C2199   1.450       .  S
C2195      C2196   1.413   1_565  A
C2195      C2202   1.448       .  S
C2196      C2197   1.412       .  A
C2197      C2198   1.415       .  A
C2197      C2200   1.450       .  S
C2198      C2201   1.450       .  S
C2199      N2206   1.157       .  T
C2200      N2205   1.157       .  T
C2201      N2203   1.157       .  T
C2202      N2204   1.157       .  T
C2207      C2208   1.417       .  A
C2207      C2212   1.419       .  A
C2208      C2209   1.418       .  A
C2208      C2213   1.450       .  S
C2209      C2210   1.415       .  A
C2209      C2216   1.450       .  S
C2210      C2211   1.415       .  A
C2211      C2212   1.422       .  A
C2211      C2214   1.449       .  S
C2212      C2215   1.449       .  S
C2213      N2220   1.157       .  T
C2214      N2219   1.157       .  T
C2215      N2217   1.157       .  T
C2216      N2218   1.157       .  T
C2221      C2222   1.417       .  A
C2221      C2226   1.421       .  A
C2222      C2223   1.413       .  A
C2222      C2227   1.453       .  S
C2223      C2224   1.418       .  A
C2223      C2230   1.453       .  S
C2224      C2225   1.419       .  A
C2225      C2226   1.432       .  A
C2225      C2228   1.448       .  S
C2226      C2229   1.448       .  S
C2227      N2234   1.157       .  T
C2228      N2233   1.157       .  T
C2229      N2231   1.158       .  T
C2230      N2232   1.157       .  T
C2235      C2236   1.410       .  A
C2235      C2240   1.422       .  A
C2236      C2237   1.412       .  A
C2236      C2241   1.451       .  S
C2237      C2238   1.419       .  A
C2237      C2244   1.452       .  S
C2238      C2239   1.410       .  A
C2239      C2240   1.414       .  A
C2239      C2242   1.451       .  S
C2240      C2243   1.452       .  S
C2241      N2248   1.157       .  T
C2242      N2247   1.157       .  T
C2243      N2245   1.158       .  T
C2244      N2246   1.157       .  T
C2249      C2250   1.422       .  A
C2249      C2254   1.424       .  A
C2250      C2251   1.415       .  A
C2250      C2255   1.451       .  S
C2251      C2252   1.413       .  A
C2251      C2258   1.451       .  S
C2252      C2253   1.410       .  A
C2253      C2254   1.400       .  A
C2253      C2256   1.456       .  S
C2254      C2257   1.453       .  S
C2255      N2262   1.158       .  T
C2256      N2261   1.157       .  T
C2257      N2259   1.156       .  T
C2258      N2260   1.157       .  T
C2263      C2264   1.412       .  A
C2263      C2268   1.402       .  A
C2264      C2265   1.415       .  A
C2264      C2269   1.448       .  S
C2265      C2266   1.419       .  A
C2265      C2272   1.451       .  S
C2266      C2267   1.423       .  A
C2267      C2268   1.396       .  A
C2267      C2270   1.454       .  S
C2268      C2271   1.452       .  S
C2269      N2276   1.156       .  T
C2270      N2275   1.157       .  T
C2271      N2273   1.157       .  T
C2272      N2274   1.158       .  T
C2277      C2278   1.416       .  A
C2277      C2282   1.417       .  A
C2278      C2279   1.419       .  A
C2278      C2283   1.449       .  S
C2279      C2280   1.416       .  A
C2279      C2286   1.449       .  S
C2280      C2281   1.412       .  A
C2281      C2282   1.416       .  A
C2281      C2284   1.447       .  S
C2282      C2285   1.448       .  S
C2283      N2290   1.157       .  T
C2284      N2289   1.156       .  T
C2285      N2287   1.156       .  T
C2286      N2288   1.157       .  T
C2291      C2292   1.414       .  A
C2291      C2296   1.415       .  A
C2292      C2293   1.418       .  A
C2292      C2297   1.450       .  S
C2293      C2294   1.417       .  A
C2293      C2300   1.449       .  S
C2294      C2295   1.416       .  A
C2295      C2296   1.418       .  A
C2295      C2298   1.449       .  S
C2296      C2299   1.449       .  S
C2297      N2304   1.157       .  T
C2298      N2303   1.157       .  T
C2299      N2301   1.157       .  T
C2300      N2302   1.157       .  T
