geometry optimzed in LAMMPS
_audit_creation_date              2020-11-30 
_audit_creation_method            'lammps2cif' 
_symmetry_space_group_name_H-M    'P1' 
_symmetry_Int_Tables_number       1 
_symmetry_cell_setting            triclinic 
loop_ 
_symmetry_equiv_pos_as_xyz 
  x,y,z 
_cell_length_a                    41.32029843 
_cell_length_b                    41.00263412467176 
_cell_length_c                    56.23988768248292 
_cell_angle_alpha                 89.85544987222627 
_cell_angle_beta                  89.63834295126038 
_cell_angle_gamma                 119.93602849863636 
loop_ 
_atom_site_label 
_atom_site_type_symbol 
_atom_site_fract_x 
_atom_site_fract_y 
_atom_site_fract_z 
_atom_site_charge 
O1          O  0.00814242  0.13809785  0.95262613    -0.82200
C2          C  0.09922682  0.29170623  0.94845144     0.97100
O3          O  0.08177811  0.26430593  0.93489018    -0.71300
O4          O  0.05933384  0.19571095  0.92238756    -0.74900
Al5        Al  0.03684528  0.22030518  0.93981306     1.49000
C6          C  0.08114177  0.18370999  0.92836243     0.92400
O7          O  0.08995430  0.18876608  0.99670860    -0.81100
O8          O  0.03725115  0.20920531  0.01669391    -0.74700
Al9        Al  0.04906408  0.16870053  0.97405112     1.90100
O10         O  0.10860467  0.24880021  0.99706792    -0.73800
O11         O  0.01914173  0.24817137  0.98936505    -0.73600
O12         O  0.09105216  0.28939005  0.97042307    -0.79300
O13         O  0.01182328  0.24689848  0.95084825    -0.77500
O14         O  0.04987689  0.21196077  0.96840207    -1.13600
O15         O  0.49209693  0.17854071  0.94327716    -0.72800
C16         C  0.48836205  0.14630131  0.94379531     0.97900
C17         C  0.11372222  0.22211819  0.00248898     0.94300
Al18       Al  0.06291275  0.24607688  0.99137467     1.55600
O19         O  0.08492094  0.17792054  0.94994598    -0.77400
C20         C  0.00291704  0.25146151  0.97159770     0.98500
C21         C  0.01427748  0.17397536  0.01630169     0.93300
O22         O  0.01298570  0.15517739  0.99832485    -0.82800
O23         O  0.36758106  0.49628010  0.88247233    -0.82200
C24         C  0.21740136  0.41068415  0.89353169     0.97100
O25         O  0.24562468  0.43310407  0.90508976    -0.71300
O26         O  0.31416737  0.45544126  0.91479100    -0.74900
Al27       Al  0.28923410  0.47604998  0.89599177     1.49000
C28         C  0.32213682  0.42970219  0.91087273     0.92400
O29         O  0.31413382  0.41116845  0.84209229    -0.81100
O30         O  0.29223553  0.46113861  0.82078334    -0.74700
Al31       Al  0.33505647  0.45393328  0.86334763     1.90100
O32         O  0.25503212  0.39157572  0.84538291    -0.73800
O33         O  0.25335559  0.48066207  0.84636222    -0.73600
O34         O  0.21717274  0.41279810  0.87100456    -0.79300
O35         O  0.26149485  0.49904610  0.88308993    -0.77500
O36         O  0.29354496  0.45594122  0.86900847    -1.13600
O37         O  0.33629487  0.02198935  0.89258609    -0.72800
C38         C  0.36710178  0.02254798  0.89307831     0.97900
C39         C  0.28073192  0.38671856  0.83791879     0.94300
Al40       Al  0.25749950  0.43802646  0.84770590     1.55600
O41         O  0.32491126  0.42066387  0.88966214    -0.77400
C42         C  0.24965929  0.49935802  0.86241424     0.98500
C43         C  0.32706278  0.48536847  0.82048261     0.93300
O44         O  0.34773664  0.48746024  0.83753228    -0.82800
O45         O  0.36495252  0.40739539  0.29990532    -0.82200
C46         C  0.21274801  0.35386261  0.27923524     0.97100
O47         O  0.23439704  0.34531855  0.26858381    -0.71300
O48         O  0.29446509  0.40848227  0.25606366    -0.74900
Al49       Al  0.28627105  0.36345137  0.27160272     1.49000
C50         C  0.31956830  0.44199591  0.26025556     0.92400
O51         O  0.30568252  0.44960720  0.31873687    -0.81100
O52         O  0.28217759  0.35158688  0.34296191    -0.74700
Al53       Al  0.33199809  0.42502947  0.30885818     1.90100
O54         O  0.25979255  0.40332916  0.33756176    -0.73800
O55         O  0.23513336  0.31078680  0.30998404    -0.73600
O56         O  0.21994685  0.36664045  0.30016261    -0.79300
O57         O  0.27789368  0.31645802  0.28446121    -0.77500
O58         O  0.29065120  0.38310637  0.30043680    -1.13600
O59         O  0.33656166  0.37701427  0.26771856    -0.72800
C60         C  0.36477922  0.39166955  0.28071438     0.97900
C61         C  0.27859883  0.43786668  0.33297395     0.94300
Al62       Al  0.25258217  0.36017234  0.32093137     1.55600
O63         O  0.33860380  0.45021716  0.27904719    -0.77400
C64         C  0.25222663  0.29704492  0.29926229     0.98500
C65         C  0.31418238  0.37545545  0.35033572     0.93300
O66         O  0.33314044  0.40722092  0.34027235    -0.82800
O67         O  0.00978856  0.41968839  0.21936432    -0.82200
C68         C  0.09140953  0.34845825  0.22565235     0.97100
O69         O  0.07290392  0.35833361  0.23837032    -0.71300
O70         O  0.05531928  0.40790165  0.25012423    -0.74900
Al71       Al  0.03060043  0.36094287  0.23253583     1.49000
C72         C  0.08019980  0.44117245  0.24442273     0.92400
O73         O  0.09064735  0.44581788  0.17583806    -0.81100
O74         O  0.03758470  0.37413129  0.15602097    -0.74700
Al75       Al  0.04960827  0.42680743  0.19826250     1.90100
O76         O  0.10748366  0.40346347  0.17755018    -0.73800
O77         O  0.01583408  0.31605120  0.18293330    -0.73600
O78         O  0.08540981  0.34385090  0.20351582    -0.79300
O79         O  0.00340317  0.30956427  0.22108296    -0.77500
O80         O  0.04695876  0.38277810  0.20425932    -1.13600
O81         O  0.98561534  0.36128959  0.23029179    -0.72800
C82         C  0.48576837  0.39320648  0.22922096     0.97900
C83         C  0.11447503  0.43584132  0.17181161     0.94300
Al84       Al  0.06048954  0.36120273  0.18189974     1.55600
O85         O  0.08518262  0.45150743  0.22282115    -0.77400
C86         C  0.99745952  0.29626958  0.20029180     0.98500
C87         C  0.01469275  0.38641376  0.15612300     0.93300
O88         O  0.01400236  0.40532900  0.17362867    -0.82800
O89         O  0.38861623  0.03685142  0.12473256    -0.82200
C90         C  0.31872469  0.11702938  0.10732317     0.97100
O91         O  0.33272182  0.10004963  0.09686791    -0.71300
O92         O  0.37999361  0.07706078  0.09018502    -0.74900
Al93       Al  0.33230661  0.05680170  0.10670079     1.49000
C94         C  0.41214063  0.10385138  0.09550206     0.92400
O95         O  0.41201857  0.12525982  0.16254368    -0.81100
O96         O  0.33909157  0.07077345  0.18279669    -0.74700
Al97       Al  0.39520757  0.08046286  0.14288433     1.90100
O98         O  0.36771623  0.13859020  0.15765810    -0.73800
O99         O  0.28358451  0.04378983  0.15415442    -0.73600
O100        O  0.31077784  0.11134135  0.12942464    -0.79300
O101        O  0.28018802  0.03287773  0.11603505    -0.77500
O102        O  0.35160051  0.07603582  0.13474160    -1.13600
O103        O  0.33033935  0.01167139  0.11443803    -0.72800
C104        C  0.35983321  0.00998730  0.11531066     0.97900
C105        C  0.40008988  0.14831314  0.16422433     0.94300
Al106      Al  0.32738319  0.09010308  0.15443849     1.55600
O107        O  0.42036629  0.11331268  0.11693046    -0.77400
C108        C  0.26493968  0.02704552  0.13629159     0.98500
C109        C  0.35307598  0.04947513  0.18511378     0.93300
O110        O  0.37368927  0.04779907  0.16911407    -0.82800
O111        O  0.38491907  0.39363232  0.04992604    -0.82200
C112        C  0.31907474  0.24138934  0.05954444     0.97100
O113        O  0.33118000  0.27051354  0.07186237    -0.71300
O114        O  0.37627600  0.34049378  0.08230372    -0.74900
Al115      Al  0.32964304  0.31392838  0.06482392     1.49000
C116        C  0.40959549  0.34924313  0.07693576     0.92400
O117        O  0.41465746  0.33872421  0.00867855    -0.81100
O118        O  0.34230547  0.31831127  0.98835643    -0.74700
Al119      Al  0.39436472  0.36109857  0.03007386     1.90100
O120        O  0.37265536  0.27932646  0.01106161    -0.73800
O121        O  0.28458039  0.28233597  0.01565211    -0.73600
O122        O  0.31381729  0.24239158  0.03740380    -0.79300
O123        O  0.27792047  0.28481056  0.05397975    -0.77500
O124        O  0.35129989  0.31936204  0.03657631    -1.13600
O125        O  0.32646531  0.35773888  0.06072557    -0.72800
C126        C  0.35535249  0.38967528  0.05945460     0.97900
C127        C  0.40495597  0.30461789  0.00548545     0.94300
Al128      Al  0.33029206  0.28363946  0.01489302     1.55600
O129        O  0.41952302  0.35186558  0.05535416    -0.77400
C130        C  0.26386499  0.27566703  0.03343028     0.98500
C131        C  0.35355769  0.35330928  0.98780695     0.93300
O132        O  0.37260097  0.37385729  0.00485039    -0.82800
O133        O  0.10777753  0.12009885  0.78931880    -0.82200
C134        C  0.25750847  0.17807817  0.77500112     0.97100
O135        O  0.22839819  0.17022805  0.76397414    -0.71300
O136        O  0.15857811  0.12558934  0.75617142    -0.74900
Al137      Al  0.18662619  0.17290853  0.77271584     1.49000
C138        C  0.14900151  0.09192137  0.76172372     0.92400
O139        O  0.16110585  0.08821615  0.83010481    -0.81100
O140        O  0.18851766  0.16441161  0.84861947    -0.74700
Al141      Al  0.14026978  0.10981092  0.80871419     1.90100
O142        O  0.22086732  0.12667253  0.82642449    -0.73800
O143        O  0.22773055  0.21934044  0.81988879    -0.73600
O144        O  0.25867533  0.18229679  0.79740891    -0.79300
O145        O  0.21659638  0.22453040  0.78265871    -0.77500
O146        O  0.18282955  0.15161995  0.80099061    -1.13600
O147        O  0.14434089  0.17811998  0.77808822    -0.72800
C148        C  0.11214286  0.14981985  0.77953651     0.97900
C149        C  0.19433662  0.09624555  0.83373975     0.94300
Al150      Al  0.22061232  0.17134713  0.82134216     1.55600
O151        O  0.14646047  0.08221312  0.78338809    -0.77400
C152        C  0.23010225  0.23923043  0.80245950     0.98500
C153        C  0.15388751  0.15373997  0.85024850     0.93300
O154        O  0.13121898  0.13436197  0.83414260    -0.82800
O155        O  0.46797705  0.11624572  0.71266705    -0.82200
C156        C  0.38270856  0.18174513  0.72546735     0.97100
O157        O  0.40158948  0.17108604  0.73691261    -0.71300
O158        O  0.42626233  0.12607882  0.74661407    -0.74900
Al159      Al  0.44535576  0.17246242  0.72799691     1.49000
C160        C  0.40073851  0.09249229  0.74226235     0.92400
O161        O  0.38014189  0.08462428  0.67510893    -0.81100
O162        O  0.42875488  0.15531584  0.65205535    -0.74700
Al163      Al  0.42442211  0.10576377  0.69457227     1.90100
O164        O  0.36279563  0.12644329  0.67859746    -0.73800
O165        O  0.45406741  0.21435129  0.67799568    -0.73600
O166        O  0.38756731  0.18731112  0.70316248    -0.79300
O167        O  0.46738417  0.22390717  0.71552965    -0.77500
O168        O  0.42642471  0.14925651  0.70072377    -1.13600
O169        O  0.49160803  0.17569654  0.72196797    -0.72800
C170        C  0.49439946  0.14659935  0.72077103     0.97900
C171        C  0.35547490  0.09397174  0.67290276     0.94300
Al172      Al  0.40958608  0.16918386  0.67967106     1.55600
O173        O  0.39263268  0.08177177  0.72102210    -0.77400
C174        C  0.47158426  0.23652873  0.69446512     0.98500
C175        C  0.45241959  0.14419262  0.65085022     0.93300
O176        O  0.45611854  0.12648298  0.66804590    -0.82800
O177        O  0.47289743  0.39308393  0.45858107    -0.82200
C178        C  0.36702867  0.23857812  0.45048255     0.97100
O179        O  0.39721568  0.25606139  0.43901856    -0.71300
O180        O  0.39789544  0.31583057  0.42262805    -0.74900
Al181      Al  0.43344434  0.30764767  0.43848826     1.49000
C182        C  0.38954849  0.34133290  0.42482924     0.92400
O183        O  0.37525884  0.34104480  0.48562657    -0.81100
O184        O  0.44658285  0.31618662  0.51011284    -0.74700
Al185      Al  0.42420814  0.36283484  0.47210134     1.90100
O186        O  0.37321004  0.29538834  0.50597473    -0.73800
O187        O  0.43540358  0.26248578  0.48026793    -0.73600
O188        O  0.36439539  0.24876522  0.47130827    -0.79300
O189        O  0.47072155  0.29785136  0.45120259    -0.77500
O190        O  0.42170897  0.31865491  0.46685553    -1.13600
O191        O  0.47130336  0.35601485  0.43067963    -0.72800
C192        C  0.48571333  0.38813789  0.43936692     0.97900
C193        C  0.35881045  0.31488086  0.50049551     0.94300
Al194      Al  0.40633856  0.28388707  0.48990269     1.55600
O195        O  0.40084105  0.36290700  0.44268750    -0.77400
C196        C  0.46308464  0.27261697  0.46672962     0.98500
C197        C  0.45950784  0.35076157  0.51449956     0.93300
O198        O  0.44871457  0.36989979  0.50247886    -0.82800
O199        O  0.10284621  0.03643016  0.37672889    -0.82200
C200        C  0.25065090  0.12310368  0.39346678     0.97100
O201        O  0.22023512  0.10388628  0.40426696    -0.71300
O202        O  0.15004202  0.07734721  0.41079701    -0.74900
Al203      Al  0.17956607  0.05922091  0.39462564     1.49000
C204        C  0.14387843  0.10390259  0.40541073     0.92400
O205        O  0.16357648  0.12499830  0.33804866    -0.81100
O206        O  0.18605389  0.07494420  0.31830214    -0.74700
Al207      Al  0.13782365  0.08037183  0.35825757     1.90100
O208        O  0.22201697  0.14153513  0.34382544    -0.73800
O209        O  0.21533611  0.04888307  0.34705920    -0.73600
O210        O  0.25404872  0.11690366  0.37168343    -0.79300
O211        O  0.21115572  0.03820516  0.38508571    -0.77500
O212        O  0.17810171  0.07813194  0.36648472    -1.13600
O213        O  0.13774196  0.01251385  0.38749148    -0.72800
C214        C  0.10617688  0.00986251  0.38576199     0.97900
C215        C  0.19799714  0.14923383  0.33689150     0.94300
Al216      Al  0.21640460  0.09428498  0.34677517     1.55600
O217        O  0.14427199  0.11293824  0.38388576    -0.77400
C218        C  0.22081151  0.03350343  0.36454871     0.98500
C219        C  0.15134977  0.05173501  0.31624433     0.93300
O220        O  0.12842738  0.04789569  0.33242189    -0.82800
O221        O  0.10488173  0.51016429  0.62854597    -0.82200
C222        C  0.15049745  0.40392700  0.61322037     0.97100
O223        O  0.16350908  0.43518321  0.60282772    -0.71300
O224        O  0.10304017  0.43415441  0.58704947    -0.74900
Al225      Al  0.14681336  0.47019597  0.60356004     1.49000
C226        C  0.07049345  0.42957417  0.58926182     0.92400
O227        O  0.05616306  0.40778028  0.64841869    -0.81100
O228        O  0.15169769  0.47895056  0.67585136    -0.74700
Al229      Al  0.08359214  0.45888236  0.63825890     1.90100
O230        O  0.09908166  0.40588532  0.66972392    -0.73800
O231        O  0.19421939  0.47031605  0.64446090    -0.73600
O232        O  0.13736304  0.39938142  0.63413551    -0.79300
O233        O  0.19257459  0.50776510  0.61713703    -0.77500
O234        O  0.12461006  0.45657175  0.63203162    -1.13600
O235        O  0.13376349  0.00937558  0.60121605    -0.72800
C236        C  0.11845517  0.02429539  0.61250704     0.97900
C237        C  0.06587152  0.39118479  0.66314554     0.94300
Al238      Al  0.14396890  0.44000991  0.65416517     1.55600
O239        O  0.06150566  0.44115272  0.60759950    -0.77400
C240        C  0.20982104  0.50084521  0.63305632     0.98500
C241        C  0.12806543  0.48862233  0.68169607     0.93300
O242        O  0.09835353  0.47760528  0.66993048    -0.82800
O243        O  0.08278002  0.13460623  0.54707264    -0.82200
C244        C  0.14689810  0.28617226  0.55591100     0.97100
O245        O  0.13774227  0.25718379  0.56809109    -0.71300
O246        O  0.09266656  0.18837181  0.57853389    -0.74900
Al247      Al  0.13864819  0.21405602  0.56071893     1.49000
C248        C  0.05924219  0.17955382  0.57437789     0.92400
O249        O  0.05350090  0.18933425  0.50568522    -0.81100
O250        O  0.12752445  0.21104900  0.48496276    -0.74700
Al251      Al  0.07362607  0.16748391  0.52714267     1.90100
O252        O  0.09494178  0.24890767  0.50587421    -0.73800
O253        O  0.18478286  0.24928575  0.51196476    -0.73600
O254        O  0.15192818  0.28637339  0.53359618    -0.79300
O255        O  0.18976981  0.24224312  0.54986341    -0.77500
O256        O  0.11687863  0.20944065  0.53284068    -1.13600
O257        O  0.14130686  0.17014713  0.55624202    -0.72800
C258        C  0.11208297  0.13839562  0.55651044     0.97900
C259        C  0.06337938  0.22287476  0.50019161     0.94300
Al260      Al  0.13792319  0.24576670  0.51097252     1.55600
O261        O  0.04854543  0.17680508  0.55297832    -0.77400
C262        C  0.20456047  0.25271310  0.52958484     0.98500
C263        C  0.11466624  0.17569122  0.48472252     0.93300
O264        O  0.09507737  0.15480962  0.50170680    -0.82800
C265        C  0.08366290  0.05345158  0.59703655    -0.06200
C266        C  0.11850817  0.05679022  0.60131731    -0.00300
C267        C  0.15090603  0.08625901  0.59031690    -0.08800
C268        C  0.14709008  0.11144916  0.57537938    -0.06200
C269        C  0.11206053  0.10738241  0.57018558    -0.00300
C270        C  0.07937298  0.07693136  0.58062177    -0.08700
C271        C  0.04004722  0.06774623  0.57402290     0.61600
H272        H  0.05932793  0.03022830  0.60532810     0.12300
H273        H  0.17178554  0.13432435  0.56716864     0.12300
C274        C  0.18952637  0.09146711  0.59427566     0.61900
F275        F  0.01297954  0.03567461  0.58551438    -0.23300
F276        F  0.03511791  0.06146865  0.54981766    -0.20600
F277        F  0.03406894  0.09687955  0.58017793    -0.20300
F278        F  0.18548917  0.55479806  0.56859651    -0.20400
F279        F  0.19460666  0.08822215  0.61818349    -0.20700
F280        F  0.21748555  0.12657251  0.58671675    -0.23400
C281        C  0.14186306  0.37223975  0.57504311    -0.06200
C282        C  0.15002348  0.37329850  0.59939819    -0.00300
C283        C  0.16027099  0.34791363  0.60878588    -0.08800
C284        C  0.16089280  0.32137856  0.59339442    -0.06200
C285        C  0.15147305  0.31936875  0.56911212    -0.00300
C286        C  0.14266166  0.34590523  0.55957288    -0.08700
C287        C  0.13327976  0.34620820  0.53353884     0.61600
H288        H  0.13448433  0.39234797  0.56817615     0.12300
H289        H  0.16821657  0.30132936  0.60044718     0.12300
C290        C  0.17120407  0.34925855  0.63464486     0.61900
F291        F  0.12506739  0.37433015  0.52841193    -0.23300
F292        F  0.10247225  0.31219166  0.52776030    -0.20600
F293        F  0.16341107  0.35234952  0.51947552    -0.20300
F294        F  0.14065039  0.33985318  0.64919845    -0.20400
F295        F  0.19956645  0.38508576  0.64011696    -0.20700
F296        F  0.18380025  0.32434286  0.63939646    -0.23400
C297        C  0.14962872  0.12241513  0.44758179    -0.06200
C298        C  0.13652684  0.12408147  0.42484686    -0.00300
C299        C  0.11653119  0.14379750  0.42181200    -0.08800
C300        C  0.11074533  0.16113706  0.44176559    -0.06200
C301        C  0.12306862  0.15833571  0.46441653    -0.00300
C302        C  0.14290717  0.13880286  0.46747741    -0.08700
C303        C  0.15725159  0.13551807  0.49166359     0.61600
H304        H  0.16508523  0.10771221  0.44979456     0.12300
H305        H  0.09577210  0.17642250  0.43998778     0.12300
C306        C  0.10030143  0.14584681  0.39804044     0.63100
F307        F  0.17989672  0.11960262  0.49016397    -0.23300
F308        F  0.12746514  0.11307295  0.50649333    -0.20600
F309        F  0.17791999  0.17082208  0.50156184    -0.20300
F310        F  0.07810788  0.10997360  0.38920331    -0.20400
F311        F  0.12885543  0.16704964  0.38207749    -0.20700
F312        F  0.07830449  0.16243419  0.40003774    -0.23400
C313        C  0.49146588  0.40318937  0.54350842    -0.06200
C314        C  0.48759627  0.36967908  0.53400396    -0.00300
C315        C  0.51182814  0.35680390  0.54248473    -0.08800
C316        C  0.53743065  0.37701696  0.56073441    -0.06200
C317        C  0.04236622  0.41041631  0.57019564    -0.00300
C318        C  0.02057226  0.42532692  0.56081813    -0.08700
C319        C  0.02728694  0.46390669  0.56802612     0.61600
H320        H  0.97646637  0.41575043  0.53655446     0.12300
H321        H  0.55543995  0.36715408  0.56769429     0.12300
C322        C  0.51211796  0.32285026  0.53193539     0.61900
F323        F  0.00679212  0.47525956  0.55444683    -0.23300
F324        F  0.06465897  0.49017603  0.56486125    -0.20600
F325        F  0.01725756  0.46346208  0.59155996    -0.20300
F326        F  0.51709738  0.32727115  0.50755440    -0.20400
F327        F  0.47887458  0.29042104  0.53716708    -0.20700
F328        F  0.54080233  0.31837964  0.54090687    -0.23400
C329        C  0.04864762  0.44353443  0.44231422    -0.06200
C330        C  0.01903679  0.41802543  0.42830508    -0.00300
C331        C  0.01991832  0.42393335  0.40329427    -0.08800
C332        C  0.05119040  0.45504271  0.39321193    -0.06200
C333        C  0.08097059  0.48011524  0.40715444    -0.00300
C334        C  0.06155943  0.94086371  0.39255814    -0.08700
C335        C  0.07543705  0.93021953  0.37044358     0.61600
H336        H  0.04697897  0.43871031  0.46134028     0.12300
H337        H  0.05284352  0.46005022  0.37419707     0.12300
C338        C  0.50917080  0.38177880  0.38787064     0.61900
F339        F  0.05618147  0.89176196  0.36664235    -0.23300
F340        F  0.11285976  0.94152948  0.37270938    -0.20600
F341        F  0.07077700  0.94763444  0.35071298    -0.20300
F342        F  0.47145634  0.36949059  0.38587078    -0.20400
F343        F  0.51434856  0.35430712  0.39853451    -0.20700
F344        F  0.52370127  0.38713397  0.36501281    -0.23400
C345        C  0.27210517  0.17311749  0.42359382    -0.06200
C346        C  0.28153671  0.15307917  0.40726588    -0.00300
C347        C  0.31861582  0.16014966  0.40614612    -0.08800
C348        C  0.34478202  0.18628113  0.42203600    -0.06200
C349        C  0.33556539  0.20669551  0.43819922    -0.00300
C350        C  0.29869779  0.20063104  0.43868691    -0.08700
C351        C  0.28789677  0.22445531  0.45384689     0.61600
H352        H  0.24357472  0.16758017  0.42401591     0.12300
H353        H  0.37333567  0.19193988  0.42141729     0.12300
C354        C  0.33056671  0.14033603  0.38834860     0.61900
F355        F  0.25114581  0.21523248  0.45037108    -0.23300
F356        F  0.31042837  0.26209943  0.44801767    -0.20600
F357        F  0.29199425  0.21909187  0.47767095    -0.20300
F358        F  0.32705118  0.15074229  0.36551801    -0.20400
F359        F  0.30847015  0.10174493  0.39095603    -0.20700
F360        F  0.36740806  0.14962518  0.39135752    -0.23400
C361        C  0.02385540  0.27362018  0.46428844    -0.06200
C362        C  0.48661020  0.25505768  0.47025690    -0.00300
C363        C  0.47298922  0.22001515  0.48243958    -0.08800
C364        C  0.49877592  0.21013187  0.49096067    -0.06200
C365        C  0.03730294  0.23202648  0.48791030    -0.00300
C366        C  0.04926296  0.26201886  0.47120672    -0.08700
C367        C  0.08807633  0.28100153  0.46009105     0.61600
H368        H  0.03338447  0.29844390  0.45321039     0.12300
H369        H  0.48925257  0.18551259  0.50225501     0.12300
C370        C  0.43163994  0.19275101  0.48668264     0.61900
F371        F  0.09010858  0.30180309  0.44011966    -0.23300
F372        F  0.09700042  0.25407979  0.45308969    -0.20600
F373        F  0.11413971  0.30504180  0.47618098    -0.20300
F374        F  0.41147866  0.19065584  0.46661177    -0.20400
F375        F  0.41888598  0.20428727  0.50588486    -0.20700
F376        F  0.42501780  0.15678516  0.49151363    -0.23400
C377        C  0.26175916  0.30302867  0.51072449    -0.06200
C378        C  0.24557702  0.27141540  0.52585907    -0.00300
C379        C  0.26820566  0.25786175  0.53538789    -0.08800
C380        C  0.30567094  0.27458824  0.52767184    -0.06200
C381        C  0.32131780  0.30442724  0.51088905    -0.00300
C382        C  0.29932875  0.32025978  0.50325399    -0.08700
C383        C  0.31452836  0.35457305  0.48702149     0.61600
H384        H  0.24412475  0.31366682  0.50424317     0.12300
H385        H  0.32268166  0.26328957  0.53419314     0.12300
C386        C  0.25256237  0.22485110  0.55266821     0.61900
F387        F  0.28917954  0.36698372  0.48405295    -0.23300
F388        F  0.32250104  0.34590473  0.46479003    -0.20600
F389        F  0.34647359  0.38388244  0.49674463    -0.20300
F390        F  0.22280675  0.19386667  0.54245062    -0.20400
F391        F  0.24068443  0.23410688  0.57329696    -0.20700
F392        F  0.27893828  0.21498091  0.55884645    -0.23400
C393        C  0.51392294  0.15943496  0.63495166    -0.06200
C394        C  0.47817668  0.15351181  0.63002969    -0.00300
C395        C  0.46887705  0.15622643  0.60616551    -0.08800
C396        C  0.49624458  0.16545534  0.58818158    -0.06200
C397        C  0.03255814  0.17130726  0.59484413    -0.00300
C398        C  0.04009960  0.16435220  0.61852039    -0.08700
C399        C  0.07674027  0.16667545  0.62579626     0.61600
H400        H  0.52062370  0.15749826  0.65327945     0.12300
H401        H  0.48948097  0.16792671  0.56994980     0.12300
C402        C  0.43011137  0.14838579  0.59951114     0.61900
F403        F  0.07665033  0.15719810  0.64944886    -0.23300
F404        F  0.10591575  0.20309796  0.62268058    -0.20600
F405        F  0.08314382  0.14215553  0.61249786    -0.20300
F406        F  0.42403964  0.17623364  0.60852266    -0.20400
F407        F  0.40354676  0.11385328  0.60866154    -0.20700
F408        F  0.42552928  0.14745932  0.57510732    -0.23400
C409        C  0.99691801  0.28716840  0.66532810    -0.06200
C410        C  0.49544845  0.27732242  0.68786700    -0.00300
C411        C  0.51653422  0.30683547  0.70410999    -0.08800
C412        C  0.53637458  0.34418730  0.69537949    -0.06200
C413        C  0.03941989  0.35310407  0.67199410    -0.00300
C414        C  0.01816110  0.32362397  0.65612864    -0.08700
C415        C  0.01917469  0.33013103  0.62937400     0.61600
H416        H  0.98010504  0.26494777  0.65302881     0.12300
H417        H  0.55291428  0.36710490  0.70737277     0.12300
C418        C  0.51904921  0.29942679  0.73030531     0.61900
F419        F  0.00282072  0.35162189  0.62427603    -0.23300
F420        F  0.00013422  0.29671776  0.61698756    -0.20600
F421        F  0.05573261  0.34852053  0.62118550    -0.20300
F422        F  0.53288884  0.27506782  0.73278842    -0.20400
F423        F  0.48408730  0.28392426  0.74082145    -0.20700
F424        F  0.54263231  0.33211425  0.74239364    -0.23400
C425        C  0.29072685  0.07930243  0.66673898    -0.06200
C426        C  0.31765821  0.06820990  0.66333651    -0.00300
C427        C  0.30907207  0.53344026  0.64916358    -0.08800
C428        C  0.27370413  0.51412215  0.63847808    -0.06200
C429        C  0.24507691  0.02636295  0.64431426    -0.00300
C430        C  0.25444537  0.05864000  0.65805566    -0.08700
C431        C  0.22762409  0.07215506  0.66538453     0.61600
H432        H  0.29760334  0.10421992  0.67703904     0.12300
H433        H  0.26443800  0.48696922  0.63035308     0.12300
C434        C  0.33295208  0.51483385  0.64969833     0.61900
F435        F  0.22619547  0.07319549  0.68994250    -0.23300
F436        F  0.19165154  0.04973019  0.65745203    -0.20600
F437        F  0.24081801  0.10820296  0.65663382    -0.20300
F438        F  0.34087599  0.51049275  0.67292285    -0.20400
F439        F  0.36615311  0.04568388  0.63535487    -0.20700
F440        F  0.31516531  0.47948928  0.63946066    -0.23400
C441        C  0.15490791  0.03921511  0.74438350    -0.06200
C442        C  0.14070520  0.06392745  0.74249838    -0.00300
C443        C  0.11936052  0.06171276  0.72226346    -0.08800
C444        C  0.11446843  0.03600722  0.70420379    -0.06200
C445        C  0.13537359  0.51493127  0.70169808    -0.00300
C446        C  0.14461406  0.50916608  0.72492374    -0.08700
C447        C  0.14697967  0.47436819  0.73106813     0.61600
H448        H  0.17086564  0.04106784  0.76003949     0.12300
H449        H  0.09906014  0.03496126  0.68844635     0.12300
C450        C  0.10046742  0.08527575  0.71995407     0.61900
F451        F  0.15206988  0.47194292  0.75517616    -0.23300
F452        F  0.17668236  0.47522948  0.71905388    -0.20600
F453        F  0.11422939  0.44245955  0.72464330    -0.20300
F454        F  0.12692518  0.12269838  0.71643221    -0.20400
F455        F  0.07999798  0.08152339  0.74035297    -0.20700
F456        F  0.07617487  0.07406391  0.70094465    -0.23400
C457        C  0.08982825  0.17451389  0.74714735    -0.06200
C458        C  0.08077416  0.15036284  0.76702551    -0.00300
C459        C  0.04262367  0.12631681  0.77314180    -0.08800
C460        C  0.51632332  0.11897951  0.75034664    -0.06200
C461        C  0.02434823  0.14925451  0.73823963    -0.00300
C462        C  0.06218741  0.17492465  0.73289590    -0.08700
C463        C  0.07324732  0.20234713  0.71217733     0.61600
H464        H  0.11894126  0.19300152  0.74262385     0.12300
H465        H  0.48727350  0.09733936  0.75222197     0.12300
C466        C  0.03061387  0.10215932  0.79552385     0.61900
F467        F  0.11154541  0.22226583  0.70859600    -0.23300
F468        F  0.06146737  0.22796738  0.71649800    -0.20600
F469        F  0.05689122  0.18298265  0.69158453    -0.20300
F470        F  0.99301635  0.08773583  0.80051305    -0.20400
F471        F  0.05053491  0.12350613  0.81479459    -0.20700
F472        F  0.54543026  0.06559372  0.77912081    -0.23400
C473        C  0.32193213  0.18863998  0.77434694    -0.06200
C474        C  0.29042708  0.18215628  0.76135949    -0.00300
C475        C  0.29130468  0.17949490  0.73599297    -0.08800
C476        C  0.32289331  0.18133347  0.72515736    -0.06200
C477        C  0.35336025  0.18566307  0.73833339    -0.00300
C478        C  0.35350885  0.19061328  0.76342864    -0.08700
C479        C  0.38633108  0.19767261  0.77906008     0.61600
H480        H  0.32135525  0.19117170  0.79347547     0.12300
H481        H  0.32337399  0.17777241  0.70611661     0.12300
C482        C  0.25944670  0.17421611  0.71992452     0.61900
F483        F  0.38316347  0.20914672  0.80167277    -0.23300
F484        F  0.41931437  0.22578244  0.76919404    -0.20600
F485        F  0.38798480  0.16494600  0.78144680    -0.20300
F486        F  0.25181291  0.20309474  0.72347705    -0.20400
F487        F  0.22793936  0.13982096  0.72461358    -0.20700
F488        F  0.26805593  0.17472889  0.69604001    -0.23400
C489        C  0.32711566  0.45612194  0.08664266    -0.06200
C490        C  0.35873869  0.47942071  0.10051169    -0.00300
C491        C  0.39013916  0.47402711  0.09951392    -0.08800
C492        C  0.38798540  0.44491674  0.08522221    -0.06200
C493        C  0.35615290  0.42165259  0.07181819    -0.00300
C494        C  0.32544911  0.42773093  0.07204712    -0.08700
C495        C  0.29143814  0.40516923  0.05651862     0.61600
H496        H  0.30330534  0.46038936  0.08697109     0.12300
H497        H  0.41115978  0.43960728  0.08467931     0.12300
C498        C  0.42801979  0.99800424  0.11404065     0.61900
F499        F  0.26898507  0.42133095  0.05545738    -0.23300
F500        F  0.27016561  0.36914022  0.06560107    -0.20600
F501        F  0.30264662  0.40340798  0.03353853    -0.20300
F502        F  0.42010575  0.99630658  0.13810250    -0.20400
F503        F  0.44461860  0.03487662  0.10611212    -0.20700
F504        F  0.45369379  0.98598940  0.11095831    -0.23400
C505        C  0.31786938  0.18076142  0.05786507    -0.06200
C506        C  0.31231547  0.20622348  0.07128194    -0.00300
C507        C  0.30270823  0.19862391  0.09578158    -0.08800
C508        C  0.30384557  0.16835888  0.10653914    -0.06200
C509        C  0.31290010  0.14476183  0.09363614    -0.00300
C510        C  0.31769205  0.14958386  0.06839533    -0.08700
C511        C  0.32294812  0.12280231  0.05220948     0.61600
H512        H  0.32415621  0.18649332  0.03908127     0.12300
H513        H  0.29893023  0.16390327  0.12550363     0.12300
C514        C  0.29160900  0.22219558  0.11092469     0.61900
F515        F  0.32040332  0.12989486  0.02839840    -0.23300
F516        F  0.29540731  0.08607415  0.05684054    -0.20600
F517        F  0.35783490  0.12671133  0.05562785    -0.20300
F518        F  0.26745442  0.23006868  0.09854013    -0.20400
F519        F  0.32311526  0.25538717  0.11722533    -0.20700
F520        F  0.27341310  0.20343993  0.13161611    -0.23400
C521        C  0.99219644  0.35921135  0.11558640    -0.06200
C522        C  0.98846094  0.37809701  0.13549943    -0.00300
C523        C  0.46369723  0.39428220  0.13325725    -0.08800
C524        C  0.43883222  0.38358705  0.11394746    -0.06200
C525        C  0.43739774  0.35886700  0.09629452    -0.00300
C526        C  0.46136083  0.34355895  0.09796751    -0.08700
C527        C  0.45943486  0.31504968  0.08000229     0.61600
H528        H  0.01412256  0.35208549  0.11565928     0.12300
H529        H  0.41998618  0.39463574  0.11237358     0.12300
C530        C  0.46278418  0.42127650  0.15145866     0.61900
F531        F  0.99885062  0.31644612  0.08060544    -0.23300
F532        F  0.47204683  0.33225523  0.05806987    -0.20600
F533        F  0.93900230  0.29481978  0.07128981    -0.20300
F534        F  0.49766027  0.45317212  0.15290850    -0.20400
F535        F  0.94380600  0.38411549  0.17649524    -0.20700
F536        F  0.43759908  0.43283244  0.14551288    -0.23400
C537        C  0.94942331  0.19123765  0.19019699    -0.06200
C538        C  0.42327032  0.18655732  0.17467742    -0.00300
C539        C  0.41738559  0.21736013  0.16940848    -0.08800
C540        C  0.44063191  0.25233078  0.18005432    -0.06200
C541        C  0.96874699  0.25727539  0.19507798    -0.00300
C542        C  0.97364392  0.22638091  0.20049100    -0.08700
C543        C  0.00572310  0.23124396  0.21590563     0.61600
H544        H  0.95273083  0.16725467  0.19429820     0.12300
H545        H  0.43759699  0.27643176  0.17571483     0.12300
C546        C  0.38799203  0.21461901  0.15199303     0.61900
F547        F  0.00538905  0.19761856  0.21927895    -0.23300
F548        F  0.00334267  0.24478970  0.23794798    -0.20600
F549        F  0.03929252  0.25651652  0.20517410    -0.20300
F550        F  0.35261867  0.19137811  0.16121955    -0.20400
F551        F  0.39199667  0.20071131  0.13049134    -0.20700
F552        F  0.39107471  0.24930520  0.14750805    -0.23400
C553        C  0.16745246  0.44385520  0.14689581    -0.06200
C554        C  0.15072115  0.46107041  0.15991288    -0.00300
C555        C  0.16805765  0.99961647  0.15641626    -0.08800
C556        C  0.20459390  0.02025156  0.14717680    -0.06200
C557        C  0.22456673  0.00270105  0.13975438    -0.00300
C558        C  0.20752764  0.96323656  0.14030865    -0.08700
C559        C  0.22281843  0.44474327  0.12640824     0.61600
H560        H  0.15212710  0.41361333  0.14465570     0.12300
H561        H  0.21885558  0.05073017  0.14678411     0.12300
C562        C  0.14916248  0.02085365  0.16563568     0.61900
F563        F  0.19929861  0.40614710  0.12567016    -0.23300
F564        F  0.25417562  0.45187100  0.13918156    -0.20600
F565        F  0.24075647  0.95223177  0.10984352    -0.20300
F566        F  0.14057344  0.01293896  0.18951910    -0.20400
F567        F  0.11694993  0.01061229  0.15294912    -0.20700
F568        F  0.17186662  0.05945419  0.16329718    -0.23400
C569        C  0.12949922  0.98940929  0.29924443    -0.06200
C570        C  0.13716925  0.02633711  0.29566027    -0.00300
C571        C  0.12797735  0.03664605  0.27384160    -0.08800
C572        C  0.11000497  0.00879965  0.25633097    -0.06200
C573        C  0.10187681  0.46898303  0.26336173    -0.00300
C574        C  0.11507130  0.45939147  0.28403226    -0.08700
C575        C  0.11497586  0.42250031  0.28617401     0.61600
H576        H  0.13701585  0.98240267  0.31615771     0.12300
H577        H  0.10191412  0.01604361  0.23973525     0.12300
C578        C  0.13631678  0.07661170  0.26953426     0.61900
F579        F  0.13492903  0.42207038  0.30572979    -0.23300
F580        F  0.13161539  0.41769499  0.26611771    -0.20600
F581        F  0.07891071  0.39280610  0.28858797    -0.20300
F582        F  0.17419904  0.10116142  0.27191791    -0.20400
F583        F  0.11704855  0.08568031  0.28595836    -0.20700
F584        F  0.12595885  0.08126747  0.24697129    -0.23400
C585        C  0.33671621  0.33520815  0.36740098    -0.06200
C586        C  0.33065703  0.36559866  0.37036337    -0.00300
C587        C  0.34157726  0.38644389  0.39159595    -0.08800
C588        C  0.35970355  0.37686799  0.40909338    -0.06200
C589        C  0.36723537  0.34708753  0.40601178    -0.00300
C590        C  0.35448255  0.32510244  0.38484625    -0.08700
C591        C  0.35947092  0.29131537  0.38004596     0.61600
H592        H  0.32852912  0.32026801  0.35083931     0.12300
H593        H  0.36874679  0.39328955  0.42515051     0.12300
C594        C  0.33368942  0.41842065  0.39573522     0.61900
F595        F  0.34287422  0.27344886  0.35903281    -0.23300
F596        F  0.34310556  0.26513874  0.39818893    -0.20600
F597        F  0.39704434  0.30272622  0.37821411    -0.20300
F598        F  0.29612842  0.40575207  0.39230929    -0.20400
F599        F  0.33947818  0.94126022  0.38401658    -0.20700
F600        F  0.34261603  0.43238926  0.41859130    -0.23400
C601        C  0.35882279  0.99594390  0.23887329    -0.06200
C602        C  0.32840411  0.47211700  0.24252662    -0.00300
C603        C  0.29458473  0.96573096  0.22500371    -0.08800
C604        C  0.30581924  0.99515267  0.20821621    -0.06200
C605        C  0.34308321  0.02386492  0.20591295    -0.00300
C606        C  0.37010580  0.02461529  0.22154758    -0.08700
C607        C  0.41060933  0.05583900  0.22004611     0.61600
H608        H  0.38579773  0.48628128  0.24108645     0.12300
H609        H  0.28580334  0.99491607  0.19575344     0.12300
C610        C  0.25418034  0.93434442  0.22527496     0.61900
F611        F  0.43165667  0.05348445  0.23832386    -0.23300
F612        F  0.41248661  0.09042398  0.22145010    -0.20600
F613        F  0.42636463  0.05371687  0.19876972    -0.20300
F614        F  0.23951402  0.92913066  0.24804172    -0.20400
F615        F  0.24378566  0.42616565  0.24228503    -0.20700
F616        F  0.23210666  0.94207807  0.21051279    -0.23400
C617        C  0.42671646  0.42696012  0.26250215    -0.06200
C618        C  0.39853945  0.39272527  0.27173821    -0.00300
C619        C  0.39998194  0.35950183  0.26824925    -0.08800
C620        C  0.42851291  0.36112770  0.25388317    -0.06200
C621        C  0.45613612  0.39504132  0.24336277    -0.00300
C622        C  0.45606613  0.42906624  0.24853303    -0.08700
C623        C  0.48628833  0.46747983  0.23968887     0.61600
H624        H  0.42456013  0.45189666  0.26555930     0.12300
H625        H  0.42896386  0.33535674  0.25062319     0.12300
C626        C  0.37146480  0.32251462  0.27969302     0.61900
F627        F  0.48067389  0.49618595  0.24774054    -0.23300
F628        F  0.48653204  0.46855130  0.21510417    -0.20600
F629        F  0.52071712  0.47466124  0.24784989    -0.20300
F630        F  0.33710711  0.30963169  0.26923137    -0.20400
F631        F  0.36857929  0.32769660  0.30375384    -0.20700
F632        F  0.38137333  0.29503532  0.27717160    -0.23400
C633        C  0.11717276  0.33949084  0.26294766    -0.06200
C634        C  0.12052988  0.34357007  0.23794413    -0.00300
C635        C  0.15332660  0.34815718  0.22671913    -0.08800
C636        C  0.18148168  0.34911257  0.24106854    -0.06200
C637        C  0.17959575  0.34902772  0.26613038    -0.00300
C638        C  0.14675695  0.34415897  0.27736150    -0.08700
C639        C  0.14276313  0.34448283  0.30426874     0.61600
H640        H  0.09166844  0.33499007  0.27141551     0.12300
H641        H  0.20655667  0.35237085  0.23265266     0.12300
C642        C  0.16007549  0.35441640  0.20008862     0.61900
F643        F  0.10755133  0.33721067  0.31118652    -0.23300
F644        F  0.16828226  0.37951843  0.31298541    -0.20600
F645        F  0.14882449  0.31730704  0.31449690    -0.20300
F646        F  0.15992369  0.38683993  0.19355984    -0.20400
F647        F  0.13262826  0.32399201  0.18793786    -0.20700
F648        F  0.19424284  0.35870261  0.19323989    -0.23400
C649        C  0.20455552  0.19112209  0.30327271    -0.06200
C650        C  0.21158988  0.18710876  0.32720242    -0.00300
C651        C  0.23539562  0.21919777  0.34076907    -0.08800
C652        C  0.24991090  0.25469281  0.33016797    -0.06200
C653        C  0.24269079  0.25890719  0.30640055    -0.00300
C654        C  0.22033676  0.22696371  0.29247502    -0.08700
C655        C  0.21292809  0.23107271  0.26661415     0.61600
H656        H  0.18724917  0.16615736  0.29312976     0.12300
H657        H  0.26632222  0.27943866  0.34044741     0.12300
C658        C  0.24542428  0.21622333  0.36639409     0.61900
F659        F  0.19163157  0.19645778  0.25589229    -0.23300
F660        F  0.24650937  0.25034058  0.25438457    -0.20600
F661        F  0.19408221  0.25094138  0.26492333    -0.20300
F662        F  0.26944009  0.20191780  0.36684662    -0.20400
F663        F  0.21354574  0.19284145  0.37940170    -0.20700
F664        F  0.26303356  0.25090466  0.37745508    -0.23400
C665        C  0.26008599  0.02044539  0.33774309    -0.06200
C666        C  0.24019859  0.01182602  0.35949643    -0.00300
C667        C  0.21699220  0.46915867  0.36416090    -0.08800
C668        C  0.23152575  0.44728339  0.35485021    -0.06200
C669        C  0.26966013  0.96729207  0.34194369    -0.00300
C670        C  0.27422513  0.99845793  0.32841908    -0.08700
C671        C  0.29175141  0.00748034  0.30362633     0.61600
H672        H  0.26351793  0.04427793  0.32741190     0.12300
H673        H  0.21410771  0.41695493  0.35507169     0.12300
C674        C  0.17724023  0.45059263  0.37372956     0.61900
F675        F  0.29013691  0.03714807  0.29301503    -0.23300
F676        F  0.27296848  0.97647367  0.28911896    -0.20600
F677        F  0.32895794  0.01739141  0.30490088    -0.20300
F678        F  0.15670826  0.46248882  0.36070606    -0.20400
F679        F  0.17754918  0.46034163  0.39727813    -0.20700
F680        F  0.15953886  0.41174130  0.37243918    -0.23400
C681        C  0.32963949  0.00994632  0.78105005    -0.06200
C682        C  0.34423822  0.51207249  0.80012295    -0.00300
C683        C  0.36905315  0.55109354  0.80361249    -0.08800
C684        C  0.40183348  0.07112318  0.78336384    -0.06200
C685        C  0.38171472  0.06531704  0.76232536    -0.00300
C686        C  0.34453351  0.03449128  0.76126482    -0.08700
C687        C  0.32005229  0.02767213  0.73966919     0.61600
H688        H  0.30161346  0.98606849  0.78014643     0.12300
H689        H  0.43003081  0.09477783  0.78395225     0.12300
C690        C  0.37804148  0.56831545  0.82828987     0.61900
F691        F  0.28333704  0.00023271  0.74400630    -0.23300
F692        F  0.33317369  0.01585150  0.72081592    -0.20600
F693        F  0.32020148  0.06043267  0.73345811    -0.20300
F694        F  0.40046951  0.55742817  0.83994216    -0.20400
F695        F  0.34543388  0.55670699  0.84119190    -0.20700
F696        F  0.39692595  0.60726186  0.82740749    -0.23400
C697        C  0.23989661  0.05483275  0.87232308    -0.06200
C698        C  0.23341907  0.02368940  0.85851581    -0.00300
C699        C  0.20547695  0.51118208  0.83680910    -0.08800
C700        C  0.19365942  0.03654653  0.83268004    -0.06200
C701        C  0.20305824  0.06926850  0.84512308    -0.00300
C702        C  0.22504574  0.07797415  0.86587748    -0.08700
C703        C  0.23238879  0.11138991  0.88115190     0.61600
H704        H  0.25797349  0.06189811  0.88759324     0.12300
H705        H  0.17659577  0.03067347  0.81696908     0.12300
C706        C  0.19145562  0.47505312  0.82262683     0.61900
F707        F  0.24983288  0.11189502  0.90219418    -0.23300
F708        F  0.19887542  0.10959070  0.88676743    -0.20600
F709        F  0.25507062  0.14457193  0.86903651    -0.20300
F710        F  0.17943966  0.44467041  0.83785896    -0.20400
F711        F  0.21955982  0.47752833  0.80792089    -0.20700
F712        F  0.16149476  0.46817188  0.80838377    -0.23400
C713        C  0.29352733  0.33561105  0.82749192    -0.06200
C714        C  0.27111541  0.35201416  0.82454324    -0.00300
C715        C  0.23926395  0.33420098  0.80953343    -0.08800
C716        C  0.22815288  0.29805749  0.80089862    -0.06200
C717        C  0.24826263  0.28003450  0.80624558    -0.00300
C718        C  0.28282923  0.29986892  0.81829098    -0.08700
C719        C  0.30813872  0.28327444  0.82181766     0.61600
H720        H  0.31848793  0.35002380  0.83814771     0.12300
H721        H  0.20228342  0.28262599  0.79120676     0.12300
C722        C  0.21666989  0.35266081  0.80253309     0.61900
F723        F  0.34398789  0.31074619  0.82776684    -0.23300
F724        F  0.31046659  0.26656028  0.80102529    -0.20600
F725        F  0.29432958  0.25678613  0.83991253    -0.20300
F726        F  0.24036589  0.38949178  0.79548560    -0.20400
F727        F  0.19475905  0.35175991  0.82148281    -0.20700
F728        F  0.19323726  0.33430966  0.78367741    -0.23400
C729        C  0.32099377  0.37315383  0.92797474    -0.06200
C730        C  0.32900756  0.41042343  0.93121357    -0.00300
C731        C  0.34382285  0.42812549  0.95335632    -0.08800
C732        C  0.35164057  0.40833733  0.97076523    -0.06200
C733        C  0.34421159  0.37114468  0.96752439    -0.00300
C734        C  0.32736407  0.35274349  0.94582693    -0.08700
C735        C  0.31549306  0.31177689  0.94125658     0.61600
H736        H  0.30888810  0.35974608  0.91123748     0.12300
H737        H  0.36322730  0.42197380  0.98751476     0.12300
C738        C  0.35181442  0.46779653  0.95890986     0.61900
F739        F  0.30028345  0.30023824  0.91888510    -0.23300
F740        F  0.28853341  0.28907804  0.95772400    -0.20600
F741        F  0.34602125  0.30660518  0.94281183    -0.20300
F742        F  0.31870565  0.46851131  0.95966524    -0.20400
F743        F  0.37530454  0.49271204  0.94175934    -0.20700
F744        F  0.36895571  0.48027761  0.98069974    -0.23400
C745        C  0.44335839  0.09996533  0.05890057    -0.06200
C746        C  0.44054005  0.12269743  0.07640836    -0.00300
C747        C  0.95820723  0.16263227  0.07297177    -0.08800
C748        C  0.98414137  0.17779392  0.05399960    -0.06200
C749        C  0.98793874  0.15490836  0.03683328    -0.00300
C750        C  0.46864913  0.11516334  0.03963354    -0.08700
C751        C  0.47048723  0.08802637  0.02195334     0.61600
H752        H  0.42534552  0.06977894  0.06055328     0.12300
H753        H  0.00104510  0.20804789  0.05212304     0.12300
C754        C  0.95303939  0.18880909  0.08962029     0.61900
F755        F  0.44832875  0.05081266  0.02893931    -0.23300
F756        F  0.50678206  0.09493200  0.02006655    -0.20600
F757        F  0.45809027  0.09206781  0.99994238    -0.20300
F758        F  0.96404628  0.18595203  0.11232337    -0.20400
F759        F  0.91584852  0.17922149  0.09001440    -0.20700
F760        F  0.97389205  0.22606312  0.08245099    -0.23400
C761        C  0.11896149  0.13512517  0.88824608    -0.06200
C762        C  0.13904562  0.16344709  0.87138647    -0.00300
C763        C  0.14095190  0.19875877  0.87361376    -0.08800
C764        C  0.12219501  0.20444621  0.89274910    -0.06200
C765        C  0.10197928  0.17610927  0.90965650    -0.00300
C766        C  0.10035135  0.14079660  0.90748394    -0.08700
C767        C  0.07736300  0.10850006  0.92452026     0.61600
H768        H  0.11740585  0.10816599  0.88589714     0.12300
H769        H  0.12306684  0.23115679  0.89465699     0.12300
C770        C  0.16242208  0.23009776  0.85570142     0.61900
F771        F  0.07620096  0.07554845  0.91760208    -0.23300
F772        F  0.04118287  0.10177563  0.92522200    -0.20600
F773        F  0.09239904  0.11734840  0.94704480    -0.20300
F774        F  0.14920137  0.21775450  0.83304370    -0.20400
F775        F  0.19982582  0.24085491  0.85664577    -0.20700
F776        F  0.15906556  0.26144053  0.86031967    -0.23400
C777        C  0.39576046  0.08493532  0.91216034    -0.06200
C778        C  0.39974557  0.05429073  0.90504148    -0.00300
C779        C  0.43291525  0.05383297  0.91128366    -0.08800
C780        C  0.46032704  0.08406318  0.92444036    -0.06200
C781        C  0.45621860  0.11463417  0.93153034    -0.00300
C782        C  0.42303882  0.11499537  0.92536712    -0.08700
C783        C  0.41541418  0.14620444  0.93285630     0.61600
H784        H  0.37062830  0.08524927  0.90728979     0.12300
H785        H  0.97538314  0.07664173  0.93274864     0.12300
C786        C  0.44005366  0.02205278  0.90439008     0.61900
F787        F  0.37924514  0.13763930  0.92785416    -0.23300
F788        F  0.43927747  0.17920557  0.92088293    -0.20600
F789        F  0.42019677  0.15164834  0.95708572    -0.20300
F790        F  0.43983439  0.01893387  0.87990313    -0.20400
F791        F  0.42308955  0.49625660  0.90199104    -0.20700
F792        F  0.96197498  0.01877811  0.91678965    -0.23400
C793        C  0.12025752  0.34215916  0.91843376    -0.06200
C794        C  0.12958577  0.32623936  0.93748800    -0.00300
C795        C  0.16745273  0.33816127  0.94193873    -0.08800
C796        C  0.19485895  0.36553036  0.92690974    -0.06200
C797        C  0.18566352  0.38100602  0.90746448    -0.00300
C798        C  0.14775182  0.36969674  0.90336404    -0.08700
C799        C  0.13637280  0.38680077  0.88349383     0.61600
H800        H  0.09095299  0.33185312  0.91501267     0.12300
H801        H  0.22400188  0.37459623  0.92998931     0.12300
C802        C  0.17871175  0.32104697  0.96192616     0.61900
F803        F  0.09852332  0.37463315  0.88422869    -0.23300
F804        F  0.14442190  0.37662099  0.86179378    -0.20600
F805        F  0.15555073  0.42559598  0.88546464    -0.20300
F806        F  0.16283019  0.28268113  0.95858303    -0.20400
F807        F  0.16654562  0.32763959  0.98334117    -0.20700
F808        F  0.21706336  0.33636915  0.96308202    -0.23400
C809        C  0.47895857  0.29597000  0.96911650    -0.06200
C810        C  0.47475303  0.26243786  0.97881867    -0.00300
C811        C  0.44700721  0.24278877  0.99645571    -0.08800
C812        C  0.42621201  0.25868685  0.00490876    -0.06200
C813        C  0.43084532  0.29267520  0.99588334    -0.00300
C814        C  0.45726359  0.31158680  0.97736915    -0.08700
C815        C  0.46260400  0.34782245  0.96642098     0.61600
H816        H  0.50066788  0.31080332  0.95588736     0.12300
H817        H  0.40579491  0.24403652  0.01893288     0.12300
C818        C  0.43814346  0.20526535  0.00740869     0.61900
F819        F  0.48719026  0.35947730  0.94728976    -0.23300
F820        F  0.47686024  0.37609874  0.98319351    -0.20600
F821        F  0.42874691  0.34258299  0.95842449    -0.20300
F822        F  0.94255735  0.20613834  0.02727518    -0.20400
F823        F  0.45579447  0.18848858  0.99612282    -0.20700
F824        F  0.40009030  0.18051669  0.00626700    -0.23400
C825        C  0.20266343  0.27254115  0.03892513    -0.06200
C826        C  0.22296863  0.25661751  0.02945412    -0.00300
C827        C  0.20443514  0.22436038  0.01464328    -0.08800
C828        C  0.16764277  0.21230855  0.00746257    -0.06200
C829        C  0.14872495  0.23083289  0.01489439    -0.00300
C830        C  0.16540660  0.25966416  0.03226656    -0.08700
C831        C  0.14476314  0.27766728  0.04360500     0.61600
H832        H  0.21666496  0.29638500  0.05072707     0.12300
H833        H  0.15417029  0.18960831  0.99480231     0.12300
C834        C  0.22307014  0.20243878  0.00630568     0.61900
F835        F  0.15950907  0.29246661  0.06562741    -0.23300
F836        F  0.10743370  0.25139975  0.04703789    -0.20600
F837        F  0.14785950  0.30647102  0.02924113    -0.20300
F838        F  0.23933833  0.19495578  0.02538549    -0.20400
F839        F  0.24987333  0.22274201  0.98920892    -0.20700
F840        F  0.19761856  0.16828397  0.99641487    -0.23400
O841        O  0.01178472  0.64058542  0.95161973    -0.82200
C842        C  0.09998717  0.79368879  0.94820329     0.97100
O843        O  0.08241127  0.76639048  0.93454226    -0.71300
O844        O  0.06011971  0.69788131  0.92146662    -0.74900
Al845      Al  0.03787461  0.72218348  0.93966704     1.49000
C846        C  0.08378431  0.68776967  0.92659916     0.92400
O847        O  0.09312504  0.69090771  0.99511880    -0.81100
O848        O  0.03943535  0.71019450  0.01604271    -0.74700
Al849      Al  0.05248954  0.67122665  0.97278131     1.90100
O850        O  0.11074011  0.75057424  0.99690110    -0.73800
O851        O  0.02148961  0.75009957  0.98957314    -0.73600
O852        O  0.09260320  0.79097065  0.97031595    -0.79300
O853        O  0.01322532  0.74880307  0.95118354    -0.77500
O854        O  0.05198557  0.71397892  0.96793481    -1.13600
O855        O  0.49066458  0.67770184  0.94220348    -0.72800
C856        C  0.48626356  0.64522475  0.94252170     0.97900
C857        C  0.11625218  0.72393151  0.00158363     0.94300
Al858      Al  0.06498516  0.74765262  0.99117435     1.55600
O859        O  0.08847063  0.68242535  0.94812672    -0.77400
C860        C  0.00538399  0.75410814  0.97202319     0.98500
C861        C  0.01729686  0.67479059  0.01552476     0.93300
O862        O  0.01666162  0.65628571  0.99749570    -0.82800
O863        O  0.36903679  0.99501177  0.88477049    -0.82200
C864        C  0.21851245  0.91358284  0.89402420     0.97100
O865        O  0.24706024  0.93432331  0.90582204    -0.71300
O866        O  0.31468759  0.95410614  0.91618844    -0.74900
Al867      Al  0.29101460  0.97655262  0.89763074     1.49000
C868        C  0.32172528  0.92774918  0.91205974     0.92400
O869        O  0.31393401  0.91135629  0.84317833    -0.81100
O870        O  0.29611535  0.96490210  0.82225360    -0.74700
Al871      Al  0.33601255  0.95355330  0.86492458     1.90100
O872        O  0.25529504  0.89443005  0.84557132    -0.73800
O873        O  0.25905968  0.98619022  0.84789106    -0.73600
O874        O  0.21876374  0.91711846  0.87153577    -0.79300
O875        O  0.26392378  0.00086722  0.88520586    -0.77500
O876        O  0.29537461  0.95718129  0.87039674    -1.13600
O877        O  0.33400507  0.52224089  0.89028896    -0.72800
C878        C  0.36530754  0.52380365  0.89031653     0.97900
C879        C  0.28026851  0.88812612  0.83853397     0.94300
Al880      Al  0.26025129  0.94188089  0.84864918     1.55600
O881        O  0.32416249  0.91908043  0.89072055    -0.77400
C882        C  0.25333858  0.00279122  0.86439815     0.98500
C883        C  0.33128672  0.98795668  0.82232077     0.93300
O884        O  0.35061400  0.98807169  0.83959532    -0.82800
O885        O  0.35932816  0.90116652  0.29858431    -0.82200
C886        C  0.20645941  0.84986575  0.28086335     0.97100
O887        O  0.22737922  0.83997063  0.27082894    -0.71300
O888        O  0.28692336  0.90261532  0.25629355    -0.74900
Al889      Al  0.27906060  0.85830677  0.27279444     1.49000
C890        C  0.31316655  0.93613138  0.25913697     0.92400
O891        O  0.30611634  0.94892363  0.31860800    -0.81100
O892        O  0.27841405  0.85281793  0.34553175    -0.74700
Al893      Al  0.32887125  0.92144395  0.30809924     1.90100
O894        O  0.25705623  0.90507912  0.33691953    -0.73800
O895        O  0.23065967  0.80942653  0.31360878    -0.73600
O896        O  0.21459508  0.86453130  0.30131572    -0.79300
O897        O  0.27083720  0.81212336  0.28677830    -0.77500
O898        O  0.28575491  0.88013012  0.30123348    -1.13600
O899        O  0.32849342  0.87086406  0.26716232    -0.72800
C900        C  0.35747934  0.88495588  0.27931932     0.97900
C901        C  0.27843253  0.93916800  0.33206966     0.94300
Al902      Al  0.24845376  0.85985771  0.32254689     1.55600
O903        O  0.33343911  0.94486158  0.27752593    -0.77400
C904        C  0.24605401  0.79420550  0.30244572     0.98500
C905        C  0.31175589  0.87527274  0.35149752     0.93300
O906        O  0.33191713  0.90519119  0.33976198    -0.82800
O907        O  0.00907496  0.92067468  0.21617222    -0.82200
C908        C  0.08906066  0.84796670  0.22490534     0.97100
O909        O  0.07198536  0.86020338  0.23705183    -0.71300
O910        O  0.05370045  0.90990815  0.24749574    -0.74900
Al911      Al  0.02967327  0.86234667  0.23053803     1.49000
C912        C  0.07911276  0.94283053  0.24156858     0.92400
O913        O  0.09058561  0.94514100  0.17315533    -0.81100
O914        O  0.03753376  0.87392887  0.15386810    -0.74700
Al915      Al  0.04936452  0.92722889  0.19548461     1.90100
O916        O  0.10704202  0.90259529  0.17607767    -0.73800
O917        O  0.01413437  0.81614834  0.18165726    -0.73600
O918        O  0.08310317  0.84270352  0.20275691    -0.79300
O919        O  0.00310547  0.81046275  0.21997000    -0.77500
O920        O  0.04629881  0.88325279  0.20215293    -1.13600
O921        O  0.98467501  0.86219983  0.22720145    -0.72800
C922        C  0.48188059  0.88844827  0.23054958     0.97900
C923        C  0.11435937  0.93488527  0.16964584     0.94300
Al924      Al  0.05946053  0.86072400  0.18037248     1.55600
O925        O  0.08488006  0.95240145  0.21985931    -0.77400
C926        C  0.99650441  0.79662090  0.19933721     0.98500
C927        C  0.01517101  0.88689100  0.15362317     0.93300
O928        O  0.01403311  0.90544236  0.17110933    -0.82800
O929        O  0.38689571  0.53755395  0.12278222    -0.82200
C930        C  0.31530204  0.61647055  0.10868757     0.97100
O931        O  0.33028895  0.60097596  0.09764786    -0.71300
O932        O  0.37725527  0.57826037  0.08898709    -0.74900
Al933      Al  0.33006824  0.55755429  0.10628706     1.49000
C934        C  0.40955060  0.60501609  0.09406648     0.92400
O935        O  0.41091983  0.62482897  0.16155493    -0.81100
O936        O  0.34017026  0.57100133  0.18265465    -0.74700
Al937      Al  0.39400515  0.58070175  0.14145417     1.90100
O938        O  0.36615074  0.63802419  0.15775454    -0.73800
O939        O  0.28356039  0.54240385  0.15488151    -0.73600
O940        O  0.30757888  0.60981301  0.13074616    -0.79300
O941        O  0.27823942  0.53351464  0.11650649    -0.77500
O942        O  0.35017069  0.57610829  0.13427019    -1.13600
O943        O  0.32837895  0.51220903  0.11286051    -0.72800
C944        C  0.35798504  0.51068597  0.11348913     0.97900
C945        C  0.39866095  0.64748453  0.16397645     0.94300
Al946      Al  0.32634127  0.58933346  0.15486446     1.55600
O947        O  0.41837736  0.61423241  0.11547981    -0.77400
C948        C  0.26393182  0.52690962  0.13710128     0.98500
C949        C  0.35453116  0.55000644  0.18446488     0.93300
O950        O  0.37348924  0.54764001  0.16760535    -0.82800
O951        O  0.38680190  0.89413724  0.05013407    -0.82200
C952        C  0.31931033  0.74235347  0.06124950     0.97100
O953        O  0.33149300  0.77194675  0.07295105    -0.71300
O954        O  0.37691090  0.84147011  0.08289095    -0.74900
Al955      Al  0.33054129  0.81506417  0.06501425     1.49000
C956        C  0.41012826  0.84931166  0.07786929     0.92400
O957        O  0.41620756  0.83788350  0.00988017    -0.81100
O958        O  0.34567412  0.81727953  0.98864051    -0.74700
Al959      Al  0.39606303  0.86092262  0.03071574     1.90100
O960        O  0.37470641  0.77852097  0.01328076    -0.73800
O961        O  0.28737413  0.78308425  0.01546765    -0.73600
O962        O  0.31452017  0.74265695  0.03897808    -0.79300
O963        O  0.27911076  0.78603870  0.05353563    -0.77500
O964        O  0.35287132  0.81958428  0.03717795    -1.13600
O965        O  0.32790801  0.85889539  0.05999720    -0.72800
C966        C  0.35715991  0.89055250  0.05932325     0.97900
C967        C  0.40678222  0.80376471  0.00713883     0.94300
Al968      Al  0.33241385  0.78335715  0.01583973     1.55600
O969        O  0.42041517  0.85167892  0.05638965    -0.77400
C970        C  0.26592154  0.77669329  0.03277267     0.98500
C971        C  0.35633863  0.85217514  0.98797418     0.93300
O972        O  0.37468759  0.87313193  0.00507926    -0.82800
O973        O  0.10913182  0.61805953  0.78549787    -0.82200
C974        C  0.25920000  0.68123891  0.77305563     0.97100
O975        O  0.23128581  0.67663515  0.76180135    -0.71300
O976        O  0.16266359  0.62838704  0.75308952    -0.74900
Al977      Al  0.18738119  0.67522311  0.77049992     1.49000
C978        C  0.15343015  0.59454072  0.75796146     0.92400
O979        O  0.16232766  0.58817368  0.82667687    -0.81100
O980        O  0.18745313  0.66400784  0.84595530    -0.74700
Al981      Al  0.14185933  0.60954572  0.80513150     1.90100
O982        O  0.22181475  0.62751202  0.82413937    -0.73800
O983        O  0.22826167  0.72023813  0.81812917    -0.73600
O984        O  0.25946050  0.68296441  0.79560035    -0.79300
O985        O  0.21391103  0.72635328  0.78179843    -0.77500
O986        O  0.18384778  0.65256091  0.79827324    -1.13600
O987        O  0.14286868  0.67668885  0.77546149    -0.72800
C988        C  0.11171342  0.64688689  0.77578041     0.97900
C989        C  0.19544888  0.59655741  0.83076316     0.94300
Al990      Al  0.22095275  0.67193796  0.81914710     1.55600
O991        O  0.15018266  0.58381814  0.77951599    -0.77400
C992        C  0.22835672  0.74049630  0.80153142     0.98500
C993        C  0.15261564  0.65300969  0.84677437     0.93300
O994        O  0.13091645  0.63284525  0.83046074    -0.82800
O995        O  0.46823429  0.61437419  0.71262471    -0.82200
C996        C  0.38294361  0.68063037  0.72485957     0.97100
O997        O  0.40045007  0.66862804  0.73662135    -0.71300
O998        O  0.42427547  0.62244583  0.74565582    -0.74900
Al999      Al  0.44448501  0.66993810  0.72798768     1.49000
C1000       C  0.39923766  0.58889183  0.74053882     0.92400
O1001       O  0.38248694  0.58484607  0.67257303    -0.81100
O1002       O  0.43013740  0.65517961  0.65187721    -0.74700
Al1003     Al  0.42582750  0.60499595  0.69335703     1.90100
O1004       O  0.36387967  0.62538788  0.67802742    -0.73800
O1005       O  0.45538675  0.71328929  0.67829133    -0.73600
O1006       O  0.38859281  0.68641834  0.70265485    -0.79300
O1007       O  0.46706442  0.72197121  0.71612652    -0.77500
O1008       O  0.42692461  0.64787263  0.70029138    -1.13600
O1009       O  0.49080788  0.67343043  0.72243018    -0.72800
C1010       C  0.49394240  0.64458250  0.72135834     0.97900
C1011       C  0.35737515  0.59378690  0.67079457     0.94300
Al1012     Al  0.41068002  0.66834401  0.67940120     1.55600
O1013       O  0.39242908  0.57941173  0.71898496    -0.77400
C1014       C  0.47190951  0.73510408  0.69512105     0.98500
C1015       C  0.45502584  0.64572317  0.65066041     0.93300
O1016       O  0.45956095  0.62796248  0.66749595    -0.82800
O1017       O  0.47373429  0.89490242  0.46084755    -0.82200
C1018       C  0.37132568  0.74058248  0.45063890     0.97100
O1019       O  0.40125942  0.75903021  0.43906723    -0.71300
O1020       O  0.40088572  0.81840941  0.42270209    -0.74900
Al1021     Al  0.43672791  0.81055369  0.43907358     1.49000
C1022       C  0.39156064  0.84322736  0.42503795     0.92400
O1023       O  0.37490191  0.83907322  0.48556854    -0.81100
O1024       O  0.44921566  0.81764976  0.51055190    -0.74700
Al1025     Al  0.42452009  0.86321052  0.47312231     1.90100
O1026       O  0.37543382  0.79540735  0.50674738    -0.73800
O1027       O  0.43886465  0.76431845  0.48048019    -0.73600
O1028       O  0.36809105  0.74982801  0.47161355    -0.79300
O1029       O  0.47422152  0.80104883  0.45191496    -0.77500
O1030       O  0.42384269  0.82006620  0.46748313    -1.13600
O1031       O  0.47432746  0.85949774  0.43243509    -0.72800
C1032       C  0.48825763  0.89106803  0.44211441     0.97900
C1033       C  0.35954001  0.81333546  0.50082677     0.94300
Al1034     Al  0.40924971  0.78499987  0.49034011     1.55600
O1035       O  0.40204297  0.86414218  0.44323718    -0.77400
C1036       C  0.46680640  0.77537766  0.46708730     0.98500
C1037       C  0.46010637  0.85161059  0.51565566     0.93300
O1038       O  0.44772587  0.86979034  0.50405572    -0.82800
O1039       O  0.10745368  0.53552902  0.38348415    -0.82200
C1040       C  0.25754964  0.62624600  0.39341377     0.97100
O1041       O  0.22879172  0.60656127  0.40542956    -0.71300
O1042       O  0.16113586  0.58368921  0.41532785    -0.74900
Al1043     Al  0.18694526  0.56222445  0.39870064     1.49000
C1044       C  0.15062455  0.60679950  0.40935495     0.92400
O1045       O  0.16180174  0.62060260  0.34145232    -0.81100
O1046       O  0.18586021  0.57163805  0.32187786    -0.74700
Al1047     Al  0.13976741  0.57766651  0.36308158     1.90100
O1048       O  0.22130859  0.64044884  0.34520285    -0.73800
O1049       O  0.22177539  0.55071858  0.34973776    -0.73600
O1050       O  0.25897079  0.62019116  0.37147267    -0.79300
O1051       O  0.21482603  0.53856101  0.38799501    -0.77500
O1052       O  0.18193863  0.57789564  0.37016239    -1.13600
O1053       O  0.14417614  0.51512947  0.39606452    -0.72800
C1054       C  0.11240388  0.51173215  0.39486115     0.97900
C1055       C  0.19552232  0.64635341  0.33950705     0.94300
Al1056     Al  0.21885958  0.59435129  0.34880731     1.55600
O1057       O  0.14665551  0.61199469  0.38769227    -0.77400
C1058       C  0.22411181  0.53353575  0.36746109     0.98500
C1059       C  0.15130102  0.54737787  0.32096571     0.93300
O1060       O  0.12944099  0.54315261  0.33801284    -0.82800
O1061       O  0.10029413  0.00941214  0.63137035    -0.82200
C1062       C  0.14792040  0.90433244  0.61606828     0.97100
O1063       O  0.16087375  0.93575220  0.60589026    -0.71300
O1064       O  0.10157097  0.93590893  0.58930111    -0.74900
Al1065     Al  0.14460617  0.97108528  0.60694902     1.49000
C1066       C  0.06844676  0.92983630  0.59126260     0.92400
O1067       O  0.05199737  0.90626442  0.65001691    -0.81100
O1068       O  0.14637046  0.97675797  0.67913689    -0.74700
Al1069     Al  0.07947974  0.95777587  0.64062086     1.90100
O1070       O  0.09408210  0.90396777  0.67193287    -0.73800
O1071       O  0.19033129  0.96904847  0.64840391    -0.73600
O1072       O  0.13391589  0.89888989  0.63676943    -0.79300
O1073       O  0.18987537  0.00786902  0.62168154    -0.77500
O1074       O  0.12102559  0.95607020  0.63489910    -1.13600
O1075       O  0.13532077  0.50792219  0.59737092    -0.72800
C1076       C  0.12138603  0.52383134  0.60903201     0.97900
C1077       C  0.06123377  0.88922239  0.66467093     0.94300
Al1078     Al  0.13954494  0.93864629  0.65714052     1.55600
O1079       O  0.05839432  0.94053742  0.60956375    -0.77400
C1080       C  0.20654688  0.99998776  0.63750876     0.98500
C1081       C  0.12271390  0.98637880  0.68496401     0.93300
O1082       O  0.09336609  0.97571318  0.67274014    -0.82800
O1083       O  0.08353213  0.63837578  0.54962737    -0.82200
C1084       C  0.15010946  0.79082160  0.55812559     0.97100
O1085       O  0.14191439  0.76230294  0.57045849    -0.71300
O1086       O  0.09270189  0.69444840  0.58027519    -0.74900
Al1087     Al  0.14039539  0.71790050  0.56366419     1.49000
C1088       C  0.06014467  0.68673594  0.57399964     0.92400
O1089       O  0.05908895  0.69349538  0.50524949    -0.81100
O1090       O  0.13323692  0.71551990  0.48764013    -0.74700
Al1091     Al  0.07737031  0.67188626  0.52833817     1.90100
O1092       O  0.09918434  0.75309166  0.50752526    -0.73800
O1093       O  0.18841184  0.75407520  0.51576252    -0.73600
O1094       O  0.15457052  0.79076292  0.53581390    -0.79300
O1095       O  0.19208540  0.74350409  0.55338926    -0.77500
O1096       O  0.12021655  0.71373132  0.53515766    -1.13600
O1097       O  0.14139160  0.67312631  0.56040310    -0.72800
C1098       C  0.11219665  0.64162209  0.55961733     0.97900
C1099       C  0.06856440  0.72715727  0.50047905     0.94300
Al1100     Al  0.14198884  0.75022504  0.51353533     1.55600
O1101       O  0.05101552  0.68215942  0.55228203    -0.77400
C1102       C  0.20731732  0.75496490  0.53326736     0.98500
C1103       C  0.12096649  0.68022171  0.48741170     0.93300
O1104       O  0.10097465  0.65898899  0.50421281    -0.82800
C1105       C  0.08766846  0.55706246  0.59927107    -0.06200
C1106       C  0.12112053  0.55624215  0.59800331    -0.00300
C1107       C  0.15098670  0.58280920  0.58349535    -0.08800
C1108       C  0.14580031  0.60894243  0.57052318    -0.06200
C1109       C  0.11223729  0.60954163  0.57147484    -0.00300
C1110       C  0.08239368  0.58308855  0.58604468    -0.08700
C1111       C  0.04568544  0.58284703  0.58843673     0.61600
H1112       H  0.06508251  0.53612321  0.61014986     0.12300
H1113       H  0.16820448  0.62935664  0.55932693     0.12300
C1114       C  0.18857486  0.58454029  0.58185014     0.61900
F1115       F  0.02122559  0.55530642  0.60410824    -0.23300
F1116       F  0.02834944  0.57603410  0.56660749    -0.20600
F1117       F  0.05245129  0.61716736  0.59697163    -0.20300
F1118       F  0.19348310  0.06462781  0.58183146    -0.20400
F1119       F  0.20099135  0.58322547  0.60435323    -0.20700
F1120       F  0.21549083  0.61749917  0.57105963    -0.23400
C1121       C  0.13540867  0.87018899  0.57879379    -0.06200
C1122       C  0.14843238  0.87444017  0.60220992    -0.00300
C1123       C  0.16543593  0.85410550  0.61021005    -0.08800
C1124       C  0.16765388  0.82881268  0.59446074    -0.06200
C1125       C  0.15359048  0.82360322  0.57113266    -0.00300
C1126       C  0.13777530  0.84516166  0.56297641    -0.08700
C1127       C  0.12287372  0.84146807  0.53801868     0.61600
H1128       H  0.12330574  0.88692930  0.57295112     0.12300
H1129       H  0.17982897  0.81219215  0.60044924     0.12300
C1130       C  0.18201467  0.85996567  0.63487496     0.61900
F1131       F  0.10828665  0.86491265  0.53399621    -0.23300
F1132       F  0.09476723  0.80489408  0.53430619    -0.20600
F1133       F  0.15166751  0.85109749  0.52189881    -0.20300
F1134       F  0.15417297  0.84963210  0.65184341    -0.20400
F1135       F  0.20854245  0.89748296  0.63777287    -0.20700
F1136       F  0.19908984  0.83871165  0.63861085    -0.23400
C1137       C  0.16374489  0.63500500  0.44939280    -0.06200
C1138       C  0.14314692  0.62751989  0.42832656    -0.00300
C1139       C  0.11540949  0.63834616  0.42662826    -0.08800
C1140       C  0.10956613  0.65634871  0.44618765    -0.06200
C1141       C  0.13001314  0.66329479  0.46715135    -0.00300
C1142       C  0.15760017  0.65266361  0.46886081    -0.08700
C1143       C  0.18104959  0.66087011  0.49101228     0.61600
H1144       H  0.18500171  0.62697747  0.45049031     0.12300
H1145       H  0.08850231  0.66467989  0.44545856     0.12300
C1146       C  0.09106669  0.62990156  0.40480829     0.63100
F1147       F  0.20646011  0.64831497  0.48914964    -0.23300
F1148       F  0.15828021  0.64337454  0.51050926    -0.20600
F1149       F  0.20074609  0.69926332  0.49455722    -0.20300
F1150       F  0.07380187  0.59188682  0.39974367    -0.20400
F1151       F  0.11268063  0.65053902  0.38558107    -0.20700
F1152       F  0.06339629  0.63914963  0.40816399    -0.23400
C1153       C  0.49021383  0.90390267  0.54495047    -0.06200
C1154       C  0.48760400  0.87093293  0.53547216    -0.00300
C1155       C  0.51228839  0.85890810  0.54442883    -0.08800
C1156       C  0.53789460  0.88010248  0.56250747    -0.06200
C1157       C  0.04082398  0.90968778  0.57197758    -0.00300
C1158       C  0.01952541  0.92420816  0.56137883    -0.08700
C1159       C  0.02513717  0.96243777  0.56815670     0.61600
H1160       H  0.97744031  0.91453351  0.53552275     0.12300
H1161       H  0.55655816  0.87118161  0.56960645     0.12300
C1162       C  0.51277754  0.82457914  0.53477102     0.61900
F1163       F  0.00505905  0.97332762  0.55378466    -0.23300
F1164       F  0.06251614  0.98909970  0.56578469    -0.20600
F1165       F  0.01353456  0.96150048  0.59137240    -0.20300
F1166       F  0.51920553  0.82848975  0.51048419    -0.20400
F1167       F  0.47910174  0.79243384  0.53964011    -0.20700
F1168       F  0.54055970  0.81987048  0.54496791    -0.23400
C1169       C  0.03472708  0.91287143  0.40751410    -0.06200
C1170       C  0.02066732  0.92149110  0.42811496    -0.00300
C1171       C  0.03465559  0.95997392  0.43401100    -0.08800
C1172       C  0.06112620  0.98785503  0.41867573    -0.06200
C1173       C  0.07459706  0.97874617  0.39830370    -0.00300
C1174       C  0.07977173  0.47489181  0.43223975    -0.08700
C1175       C  0.10977058  0.50300009  0.44863373     0.61600
H1176       H  0.02450938  0.88372001  0.40299191     0.12300
H1177       H  0.07254786  0.01736559  0.42283585     0.12300
C1178       C  0.53336816  0.97065609  0.46367365     0.61900
F1179       F  0.10203042  0.49236875  0.47231627    -0.23300
F1180       F  0.11192712  0.53753890  0.44624927    -0.20600
F1181       F  0.14386476  0.50617616  0.44322660    -0.20300
F1182       F  0.53628374  0.94775229  0.48062477    -0.20400
F1183       F  0.49804446  0.96649198  0.46462102    -0.20700
F1184       F  0.55871431  0.00759140  0.46942112    -0.23400
C1185       C  0.27857048  0.67740343  0.42189311    -0.06200
C1186       C  0.28842496  0.65696551  0.40625299    -0.00300
C1187       C  0.32487261  0.66244382  0.40637081    -0.08800
C1188       C  0.35046205  0.68841261  0.42250199    -0.06200
C1189       C  0.34063908  0.70894631  0.43816370    -0.00300
C1190       C  0.30415113  0.70368639  0.43779291    -0.08700
C1191       C  0.29253337  0.72653625  0.45327077     0.61600
H1192       H  0.25020517  0.67237260  0.42155043     0.12300
H1193       H  0.37882485  0.69348505  0.42271260     0.12300
C1194       C  0.33631132  0.64045173  0.39004932     0.61900
F1195       F  0.25608028  0.71776283  0.44906363    -0.23300
F1196       F  0.31550907  0.76452464  0.44863024    -0.20600
F1197       F  0.29505089  0.71929632  0.47700646    -0.20300
F1198       F  0.33304636  0.64854911  0.36660107    -0.20400
F1199       F  0.31355242  0.60228164  0.39415255    -0.20700
F1200       F  0.37293632  0.64937971  0.39365947    -0.23400
C1201       C  0.03025207  0.77995264  0.46553806    -0.06200
C1202       C  0.49104536  0.75857464  0.47046916    -0.00300
C1203       C  0.47774965  0.72269386  0.48147373    -0.08800
C1204       C  0.50385447  0.71315916  0.48997385    -0.06200
C1205       C  0.04312275  0.73648921  0.48749914    -0.00300
C1206       C  0.05603640  0.76924382  0.47301179    -0.08700
C1207       C  0.09644877  0.79255394  0.46490911     0.61600
H1208       H  0.04005221  0.80654148  0.45635237     0.12300
H1209       H  0.49432014  0.68759792  0.50031723     0.12300
C1210       C  0.43641339  0.69420328  0.48447757     0.61900
F1211       F  0.10036655  0.81661470  0.44638662    -0.23300
F1212       F  0.10937692  0.76917050  0.45697943    -0.20600
F1213       F  0.11828311  0.81415906  0.48339181    -0.20300
F1214       F  0.41724854  0.69313575  0.46413339    -0.20400
F1215       F  0.42183844  0.70353044  0.50378346    -0.20700
F1216       F  0.43061693  0.65827690  0.48828070    -0.23400
C1217       C  0.26468064  0.80469767  0.51492541    -0.06200
C1218       C  0.24805097  0.77218067  0.52923215    -0.00300
C1219       C  0.26913333  0.75528620  0.53600699    -0.08800
C1220       C  0.30600346  0.77094531  0.52724181    -0.06200
C1221       C  0.32208470  0.80224765  0.51150202    -0.00300
C1222       C  0.30097528  0.81985340  0.50555470    -0.08700
C1223       C  0.31533997  0.85347774  0.48875770     0.61600
H1224       H  0.24793812  0.81728595  0.51019396     0.12300
H1225       H  0.32203815  0.75765120  0.53202127     0.12300
C1226       C  0.25231990  0.72002259  0.55139063     0.61900
F1227       F  0.29044248  0.86662837  0.48665210    -0.23300
F1228       F  0.32072501  0.84326807  0.46628888    -0.20600
F1229       F  0.34850884  0.88278925  0.49715323    -0.20300
F1230       F  0.22083753  0.69178173  0.54067319    -0.20400
F1231       F  0.24262139  0.72757173  0.57341797    -0.20700
F1232       F  0.27702197  0.70692401  0.55484208    -0.23400
C1233       C  0.51182952  0.69318953  0.62972943    -0.06200
C1234       C  0.48021315  0.65716205  0.62975180    -0.00300
C1235       C  0.47381659  0.63300974  0.61033635    -0.08800
C1236       C  0.49993235  0.64545098  0.59149612    -0.06200
C1237       C  0.03145997  0.67924240  0.59248074    -0.00300
C1238       C  0.03766012  0.70386596  0.61179925    -0.08700
C1239       C  0.07151471  0.74310748  0.61252948     0.61600
H1240       H  0.51586121  0.71135687  0.64472314     0.12300
H1241       H  0.49565009  0.62704058  0.57662861     0.12300
C1242       C  0.43969739  0.59417605  0.60986910     0.61900
F1243       F  0.06912309  0.76414378  0.63097833    -0.23300
F1244       F  0.07414404  0.76178834  0.59146432    -0.20600
F1245       F  0.10354512  0.74100159  0.61567279    -0.20300
F1246       F  0.40797155  0.59739212  0.61113387    -0.20400
F1247       F  0.44046394  0.57345468  0.62908434    -0.20700
F1248       F  0.43808478  0.57495435  0.58930713    -0.23400
C1249       C  0.99840428  0.78416269  0.66464710    -0.06200
C1250       C  0.49494980  0.77610876  0.68897865    -0.00300
C1251       C  0.52089296  0.80431582  0.70434903    -0.08800
C1252       C  0.54065532  0.84187190  0.69599310    -0.06200
C1253       C  0.03482004  0.85060824  0.67260250    -0.00300
C1254       C  0.01763934  0.82115980  0.65607002    -0.08700
C1255       C  0.02063424  0.82852217  0.62936301     0.61600
H1256       H  0.98597357  0.76177229  0.65176705     0.12300
H1257       H  0.56070923  0.86377328  0.70741760     0.12300
C1258       C  0.52877402  0.79514740  0.72905984     0.61900
F1259       F  0.00388377  0.84943176  0.62364326    -0.23300
F1260       F  0.00319764  0.79552763  0.61642460    -0.20600
F1261       F  0.05774414  0.84797925  0.62241283    -0.20300
F1262       F  0.53955543  0.76823974  0.72762863    -0.20400
F1263       F  0.49710950  0.78184859  0.74315426    -0.20700
F1264       F  0.55718388  0.82644321  0.74006193    -0.23400
C1265       C  0.29478436  0.58246925  0.65995536    -0.06200
C1266       C  0.32026731  0.56898080  0.65971384    -0.00300
C1267       C  0.30764427  0.03464016  0.65059069    -0.08800
C1268       C  0.27142671  0.01457857  0.64104861    -0.06200
C1269       C  0.24848692  0.52763843  0.63928298    -0.00300
C1270       C  0.25865631  0.56185737  0.65092432    -0.08700
C1271       C  0.23253798  0.57713584  0.65624986     0.61600
H1272       H  0.30229307  0.60901349  0.66842797     0.12300
H1273       H  0.26284085  0.98868264  0.63147399     0.12300
C1274       C  0.33424608  0.01946384  0.64723472     0.61900
F1275       F  0.23049000  0.58048813  0.68060242    -0.23300
F1276       F  0.19657774  0.55479983  0.64827993    -0.20600
F1277       F  0.24688410  0.61240333  0.64594715    -0.20300
F1278       F  0.34370562  0.01142243  0.66915089    -0.20400
F1279       F  0.36574073  0.53650330  0.63728740    -0.20700
F1280       F  0.31841082  0.98664811  0.63409260    -0.23400
C1281       C  0.15022993  0.53573176  0.74272665    -0.06200
C1282       C  0.14629358  0.56740782  0.73813785    -0.00300
C1283       C  0.13552119  0.57210979  0.71487341    -0.08800
C1284       C  0.13071484  0.54591652  0.69717114    -0.06200
C1285       C  0.12951692  0.01196848  0.70559722    -0.00300
C1286       C  0.14976924  0.01317352  0.72628967    -0.08700
C1287       C  0.16527084  0.98679216  0.72970017     0.61600
H1288       H  0.15799433  0.53195817  0.76044447     0.12300
H1289       H  0.12331082  0.54951465  0.67929516     0.12300
C1290       C  0.12791547  0.60373894  0.70844465     0.61900
F1291       F  0.17927498  0.98931862  0.75235049    -0.23300
F1292       F  0.19402852  0.99571392  0.71364590    -0.20600
F1293       F  0.13728936  0.94996025  0.72635097    -0.20300
F1294       F  0.16095544  0.63780502  0.70813207    -0.20400
F1295       F  0.10330407  0.60486023  0.72473367    -0.20700
F1296       F  0.11198055  0.59881595  0.68619926    -0.23400
C1297       C  0.08705527  0.67630614  0.74826201    -0.06200
C1298       C  0.07969554  0.64496863  0.76249262    -0.00300
C1299       C  0.04353470  0.61219094  0.76166103    -0.08800
C1300       C  0.51626139  0.62373928  0.75494450    -0.06200
C1301       C  0.02389654  0.64421130  0.73316609    -0.00300
C1302       C  0.05989863  0.67650970  0.73351455    -0.08700
C1303       C  0.06992535  0.71117381  0.71843514     0.61600
H1304       H  0.11455312  0.70106334  0.74864589     0.12300
H1305       H  0.48707812  0.60580956  0.75966148     0.12300
C1306       C  0.03273077  0.57669977  0.77612343     0.61900
F1307       F  0.10819626  0.73484109  0.71679034    -0.23300
F1308       F  0.05463280  0.73119221  0.72850638    -0.20600
F1309       F  0.05651609  0.70072975  0.69559241    -0.20300
F1310       F  0.99521061  0.55027236  0.77402199    -0.20400
F1311       F  0.03953468  0.58547169  0.79996873    -0.20700
F1312       F  0.54053113  0.57520350  0.79264985    -0.23400
C1313       C  0.32493423  0.69542371  0.77197905    -0.06200
C1314       C  0.29174417  0.68425717  0.75948570    -0.00300
C1315       C  0.29038891  0.67525570  0.73476786    -0.08800
C1316       C  0.32188897  0.67674358  0.72413918    -0.06200
C1317       C  0.35397657  0.68571145  0.73703058    -0.00300
C1318       C  0.35611616  0.69615143  0.76129876    -0.08700
C1319       C  0.39075398  0.70775876  0.77617510     0.61600
H1320       H  0.32602824  0.70263129  0.79057278     0.12300
H1321       H  0.32105539  0.66890876  0.70568667     0.12300
C1322       C  0.25589541  0.66230944  0.71940587     0.61900
F1323       F  0.38954696  0.72451182  0.79726242    -0.23300
F1324       F  0.42230121  0.73346663  0.76374583    -0.20600
F1325       F  0.39358584  0.67643485  0.78182765    -0.20300
F1326       F  0.24637000  0.69014694  0.71804886    -0.20400
F1327       F  0.22667177  0.62971014  0.72889867    -0.20700
F1328       F  0.26153116  0.65442573  0.69632737    -0.23400
C1329       C  0.32853997  0.95515485  0.08876609    -0.06200
C1330       C  0.36057814  0.97875825  0.10220446    -0.00300
C1331       C  0.39224978  0.97389170  0.10040576    -0.08800
C1332       C  0.39018328  0.94545279  0.08543110    -0.06200
C1333       C  0.35810564  0.92227006  0.07216841    -0.00300
C1334       C  0.32692935  0.92754423  0.07347940    -0.08700
C1335       C  0.29200950  0.90455832  0.05876977     0.61600
H1336       H  0.30427310  0.95857829  0.08992993     0.12300
H1337       H  0.41358539  0.94055144  0.08429085     0.12300
C1338       C  0.42574647  0.49832993  0.11327229     0.61900
F1339       F  0.27047815  0.92172018  0.05740858    -0.23300
F1340       F  0.27049228  0.86940558  0.06904436    -0.20600
F1341       F  0.30157827  0.90057523  0.03576538    -0.20300
F1342       F  0.41748356  0.49714610  0.13724800    -0.20400
F1343       F  0.44263397  0.53504856  0.10501460    -0.20700
F1344       F  0.45137524  0.48617691  0.11069430    -0.23400
C1345       C  0.31080722  0.67858652  0.06003408    -0.06200
C1346       C  0.31182275  0.70746057  0.07380002    -0.00300
C1347       C  0.30753228  0.70288211  0.09902102    -0.08800
C1348       C  0.30509252  0.67058383  0.10930850    -0.06200
C1349       C  0.30876531  0.64409202  0.09574344    -0.00300
C1350       C  0.30954782  0.64689694  0.07043520    -0.08700
C1351       C  0.30996869  0.61758087  0.05405038     0.61600
H1352       H  0.31335396  0.68205947  0.04089943     0.12300
H1353       H  0.30268123  0.66702275  0.12839501     0.12300
C1354       C  0.30684595  0.73195803  0.11554216     0.61900
F1355       F  0.30230706  0.62225084  0.03075210    -0.23300
F1356       F  0.28305431  0.58182163  0.06124694    -0.20600
F1357       F  0.34485726  0.62063065  0.05423597    -0.20300
F1358       F  0.28099864  0.74154752  0.10772507    -0.20400
F1359       F  0.34195528  0.76365094  0.11634077    -0.20700
F1360       F  0.29699899  0.71854561  0.13861880    -0.23400
C1361       C  0.98773582  0.85435701  0.11517329    -0.06200
C1362       C  0.98966885  0.87966261  0.13285919    -0.00300
C1363       C  0.46177874  0.89141694  0.13538458    -0.08800
C1364       C  0.43721732  0.88102312  0.11593774    -0.06200
C1365       C  0.43745607  0.85825367  0.09748596    -0.00300
C1366       C  0.46313223  0.84486616  0.09841257    -0.08700
C1367       C  0.46471038  0.82003994  0.07894829     0.61600
H1368       H  0.00526309  0.84180845  0.11685735     0.12300
H1369       H  0.41760576  0.89119030  0.11474009     0.12300
C1370       C  0.46031266  0.91787732  0.15377538     0.61900
F1371       F  0.98424425  0.80178004  0.08357395    -0.23300
F1372       F  0.47706042  0.84025876  0.05791809    -0.20600
F1373       F  0.92544885  0.78695221  0.07552396    -0.20300
F1374       F  0.49511951  0.94976143  0.15564598    -0.20400
F1375       F  0.95386371  0.90809512  0.16994309    -0.20700
F1376       F  0.43529529  0.92961448  0.14769493    -0.23400
C1377       C  0.94840784  0.69108199  0.19157761    -0.06200
C1378       C  0.42157279  0.68494628  0.17495330    -0.00300
C1379       C  0.41897011  0.71685266  0.16771933    -0.08800
C1380       C  0.44119955  0.75116442  0.17910656    -0.06200
C1381       C  0.96777905  0.75741578  0.19461691    -0.00300
C1382       C  0.97064613  0.72623046  0.20253755    -0.08700
C1383       C  0.99761541  0.73040348  0.22202077     0.61600
H1384       H  0.95064530  0.66696922  0.19710120     0.12300
H1385       H  0.44052452  0.77608992  0.17338935     0.12300
C1386       C  0.39355181  0.71556326  0.14786171     0.61900
F1387       F  0.99594811  0.69656657  0.22721413    -0.23300
F1388       F  0.98882450  0.74301814  0.24251349    -0.20600
F1389       F  0.03376778  0.75602034  0.21507764    -0.20300
F1390       F  0.35693333  0.69620661  0.15573459    -0.20400
F1391       F  0.39779391  0.69805560  0.12810617    -0.20700
F1392       F  0.40136700  0.75119513  0.14084441    -0.23400
C1393       C  0.17062427  0.94231488  0.14877278    -0.06200
C1394       C  0.15100208  0.95973557  0.15774819    -0.00300
C1395       C  0.17046326  0.50071268  0.16282140    -0.08800
C1396       C  0.20642151  0.52135340  0.15289412    -0.06200
C1397       C  0.22361879  0.50376337  0.14120185    -0.00300
C1398       C  0.20409938  0.46456315  0.13793239    -0.08700
C1399       C  0.22904925  0.94366143  0.13325211     0.61600
H1400       H  0.15736773  0.91193696  0.14928958     0.12300
H1401       H  0.22253675  0.55154592  0.15535476     0.12300
C1402       C  0.15534901  0.52114306  0.17769707     0.61900
F1403       F  0.20749099  0.90492039  0.13544229    -0.23300
F1404       F  0.25990145  0.95565824  0.14768041    -0.20600
F1405       F  0.23334431  0.45777377  0.10336670    -0.20300
F1406       F  0.14750198  0.50630625  0.20046762    -0.20400
F1407       F  0.12335841  0.51750118  0.16750901    -0.20700
F1408       F  0.18079228  0.55922298  0.17951468    -0.23400
C1409       C  0.13108310  0.48599166  0.30235569    -0.06200
C1410       C  0.13632716  0.52228356  0.30017948    -0.00300
C1411       C  0.12643804  0.53319024  0.27882576    -0.08800
C1412       C  0.10892733  0.50616258  0.26078248    -0.06200
C1413       C  0.10074057  0.97112399  0.26023427    -0.00300
C1414       C  0.11181586  0.96157147  0.28185449    -0.08700
C1415       C  0.10679079  0.92283535  0.28633614     0.61600
H1416       H  0.13993825  0.47873286  0.31862732     0.12300
H1417       H  0.09983604  0.51370538  0.24471141     0.12300
C1418       C  0.13414410  0.57310899  0.27540827     0.61900
F1419       F  0.12487530  0.92175150  0.30670833    -0.23300
F1420       F  0.12183121  0.91335141  0.26741486    -0.20600
F1421       F  0.06934834  0.89655977  0.28904299    -0.20300
F1422       F  0.17202006  0.59790759  0.27756569    -0.20400
F1423       F  0.11503047  0.58123008  0.29249490    -0.20700
F1424       F  0.12316306  0.57843403  0.25321307    -0.23400
C1425       C  0.33889963  0.83797483  0.36716975    -0.06200
C1426       C  0.32874738  0.86528894  0.37140943    -0.00300
C1427       C  0.33680918  0.88348812  0.39363434    -0.08800
C1428       C  0.35683076  0.87513684  0.41058478    -0.06200
C1429       C  0.36853116  0.84859685  0.40623622    -0.00300
C1430       C  0.35833344  0.82887315  0.38410381    -0.08700
C1431       C  0.36781663  0.79853489  0.37776895     0.61600
H1432       H  0.33203618  0.82432029  0.35004882     0.12300
H1433       H  0.36359347  0.88962521  0.42740058     0.12300
C1434       C  0.32335515  0.91088217  0.39948906     0.61900
F1435       F  0.35445179  0.78313543  0.35563209    -0.23300
F1436       F  0.35179470  0.76954028  0.39426267    -0.20600
F1437       F  0.40615431  0.81366310  0.37725104    -0.20300
F1438       F  0.28493220  0.89294121  0.39728032    -0.20400
F1439       F  0.35450455  0.44758710  0.38000160    -0.20700
F1440       F  0.33229678  0.92430630  0.42247361    -0.23400
C1441       C  0.36524364  0.49267245  0.23399168    -0.06200
C1442       C  0.32170923  0.96592094  0.24063687    -0.00300
C1443       C  0.30160669  0.48145584  0.23451945    -0.08800
C1444       C  0.31153802  0.50810298  0.21601764    -0.06200
C1445       C  0.34767268  0.52648108  0.20606802    -0.00300
C1446       C  0.37559604  0.52026621  0.21610237    -0.08700
C1447       C  0.41631992  0.54322723  0.20850684     0.61600
H1448       H  0.37946683  0.99619521  0.25075331     0.12300
H1449       H  0.29078544  0.51403806  0.20874934     0.12300
C1450       C  0.26330253  0.46441147  0.24610049     0.61900
F1451       F  0.43952749  0.53902653  0.22434176    -0.23300
F1452       F  0.42708300  0.58105031  0.20761997    -0.20600
F1453       F  0.42138339  0.53179184  0.18638282    -0.20300
F1454       F  0.26712363  0.47111030  0.27030844    -0.20400
F1455       F  0.25241390  0.90162787  0.21737214    -0.20700
F1456       F  0.24256211  0.47957463  0.23703218    -0.23400
C1457       C  0.41971681  0.92002882  0.26173249    -0.06200
C1458       C  0.39026200  0.88523218  0.26924916    -0.00300
C1459       C  0.38997813  0.85168632  0.26338884    -0.08800
C1460       C  0.42030697  0.85430653  0.25052340    -0.06200
C1461       C  0.45009893  0.88915430  0.24260022    -0.00300
C1462       C  0.44944859  0.92279572  0.24791939    -0.08700
C1463       C  0.47902990  0.96140825  0.23892170     0.61600
H1464       H  0.41820312  0.94502651  0.26590966     0.12300
H1465       H  0.42044178  0.82867179  0.24618725     0.12300
C1466       C  0.35765780  0.81330973  0.27051111     0.61900
F1467       F  0.47134921  0.98935924  0.24558413    -0.23300
F1468       F  0.48045119  0.96140378  0.21433601    -0.20600
F1469       F  0.51350744  0.97056002  0.24809039    -0.20300
F1470       F  0.32612458  0.80599401  0.25794849    -0.20400
F1471       F  0.35039939  0.81259336  0.29461482    -0.20700
F1472       F  0.36528827  0.78469050  0.26577581    -0.23400
C1473       C  0.11224946  0.83782825  0.26299402    -0.06200
C1474       C  0.11619154  0.84083031  0.23796041    -0.00300
C1475       C  0.14745296  0.84122210  0.22729486    -0.08800
C1476       C  0.17512125  0.84237212  0.24225393    -0.06200
C1477       C  0.17345393  0.84461744  0.26726807    -0.00300
C1478       C  0.14067817  0.84075121  0.27790736    -0.08700
C1479       C  0.13539205  0.83972015  0.30470909     0.61600
H1480       H  0.08724945  0.83534597  0.27105385     0.12300
H1481       H  0.19928852  0.84303153  0.23426932     0.12300
C1482       C  0.15255580  0.84164301  0.20049570     0.61900
F1483       F  0.09948290  0.83096518  0.31101636    -0.23300
F1484       F  0.15979745  0.87456046  0.31414642    -0.20600
F1485       F  0.14195271  0.81268840  0.31466197    -0.20300
F1486       F  0.15567015  0.87419336  0.19095593    -0.20400
F1487       F  0.12235094  0.81057538  0.19063723    -0.20700
F1488       F  0.18440342  0.84047763  0.19417945    -0.23400
C1489       C  0.19845123  0.68797840  0.30655728    -0.06200
C1490       C  0.20615141  0.68397210  0.33033439    -0.00300
C1491       C  0.22805704  0.71628768  0.34426664    -0.08800
C1492       C  0.24268045  0.75173145  0.33359895    -0.06200
C1493       C  0.23548618  0.75588991  0.30984728    -0.00300
C1494       C  0.21260200  0.72387300  0.29606221    -0.08700
C1495       C  0.20259817  0.72798615  0.27078674     0.61600
H1496       H  0.18169042  0.66283927  0.29624195     0.12300
H1497       H  0.25928299  0.77687279  0.34398369     0.12300
C1498       C  0.23494712  0.71349849  0.37052812     0.61900
F1499       F  0.17979389  0.69338569  0.26043315    -0.23300
F1500       F  0.23480291  0.74691960  0.25717980    -0.20600
F1501       F  0.18395551  0.74816936  0.27068669    -0.20300
F1502       F  0.25726731  0.69758118  0.37328798    -0.20400
F1503       F  0.20125943  0.69162453  0.38219152    -0.20700
F1504       F  0.25271433  0.74844221  0.38128851    -0.23400
C1505       C  0.27565787  0.52520067  0.35373159    -0.06200
C1506       C  0.23947845  0.50859527  0.36331453    -0.00300
C1507       C  0.23826905  0.98252906  0.37389946    -0.08800
C1508       C  0.25292081  0.96051945  0.36469337    -0.06200
C1509       C  0.26734127  0.46372189  0.34411770    -0.00300
C1510       C  0.29021013  0.50362423  0.34397732    -0.08700
C1511       C  0.32938436  0.52391082  0.33330269     0.61600
H1512       H  0.29183888  0.55565363  0.35293533     0.12300
H1513       H  0.25051382  0.93703004  0.37497519     0.12300
C1514       C  0.22048178  0.97396640  0.39846418     0.61900
F1515       F  0.34722780  0.56231800  0.33722633    -0.23300
F1516       F  0.32768270  0.51854635  0.30896327    -0.20600
F1517       F  0.35086717  0.51044618  0.34347505    -0.20300
F1518       F  0.18331934  0.96406136  0.39684116    -0.20400
F1519       F  0.23903345  0.00535303  0.41270284    -0.20700
F1520       F  0.22224019  0.94459987  0.40940192    -0.23400
C1521       C  0.33586760  0.49830587  0.77688586    -0.06200
C1522       C  0.35001710  0.01524776  0.80204544    -0.00300
C1523       C  0.38683718  0.04726123  0.80336042    -0.08800
C1524       C  0.38558983  0.57461392  0.78368840    -0.06200
C1525       C  0.37857220  0.56096261  0.76025721    -0.00300
C1526       C  0.35273459  0.52178164  0.75679551    -0.08700
C1527       C  0.34285749  0.50412106  0.73228591     0.61600
H1528       H  0.31652331  0.46854107  0.77466567     0.12300
H1529       H  0.40481550  0.60423358  0.78648633     0.12300
C1530       C  0.41055755  0.05754623  0.82569877     0.61900
F1531       F  0.31786656  0.46580499  0.73337125    -0.23300
F1532       F  0.37473286  0.50908497  0.72080186    -0.20600
F1533       F  0.32641334  0.52047953  0.71919267    -0.20300
F1534       F  0.41985731  0.03019643  0.83063838    -0.20400
F1535       F  0.39110595  0.06116316  0.84464387    -0.20700
F1536       F  0.44362970  0.09144571  0.82329245    -0.23400
C1537       C  0.23960130  0.55365791  0.86938807    -0.06200
C1538       C  0.23107418  0.52136561  0.85619801    -0.00300
C1539       C  0.20817291  0.01327166  0.83887128    -0.08800
C1540       C  0.19271879  0.53574813  0.83013333    -0.06200
C1541       C  0.20405018  0.56940806  0.84200168    -0.00300
C1542       C  0.22636226  0.57797468  0.86258560    -0.08700
C1543       C  0.23569162  0.61240312  0.87738179     0.61600
H1544       H  0.25800255  0.56061708  0.88448166     0.12300
H1545       H  0.17529537  0.52988038  0.81460074     0.12300
C1546       C  0.19639639  0.97831219  0.82381390     0.61900
F1547       F  0.25233649  0.61223568  0.89863271    -0.23300
F1548       F  0.20329254  0.61309898  0.88263609    -0.20600
F1549       F  0.25997816  0.64471905  0.86497944    -0.20300
F1550       F  0.18491679  0.94718827  0.83828346    -0.20400
F1551       F  0.22574867  0.98312104  0.80942682    -0.20700
F1552       F  0.16673959  0.97089933  0.80912443    -0.23400
C1553       C  0.29119681  0.83585729  0.82823203    -0.06200
C1554       C  0.26957680  0.85306968  0.82519357    -0.00300
C1555       C  0.23792343  0.83598268  0.80994398    -0.08800
C1556       C  0.22642695  0.79983223  0.80095367    -0.06200
C1557       C  0.24616222  0.78125176  0.80606928    -0.00300
C1558       C  0.28059286  0.80061414  0.81833471    -0.08700
C1559       C  0.30589415  0.78406476  0.82190198     0.61600
H1560       H  0.31591791  0.84949984  0.83917943     0.12300
H1561       H  0.20076410  0.78498002  0.79099359     0.12300
C1562       C  0.21625041  0.85543928  0.80290504     0.61900
F1563       F  0.34268068  0.81228200  0.82443166    -0.23300
F1564       F  0.30454488  0.76276021  0.80250972    -0.20600
F1565       F  0.29503164  0.76184860  0.84217450    -0.20300
F1566       F  0.24074487  0.89196344  0.79561468    -0.20400
F1567       F  0.19498132  0.85568225  0.82190035    -0.20700
F1568       F  0.19229596  0.83729835  0.78423474    -0.23400
C1569       C  0.33040737  0.87504202  0.92687417    -0.06200
C1570       C  0.32872942  0.90781373  0.93215871    -0.00300
C1571       C  0.33499519  0.92091183  0.95607621    -0.08800
C1572       C  0.34359900  0.90138439  0.97320190    -0.06200
C1573       C  0.34615607  0.86928066  0.96784131    -0.00300
C1574       C  0.33870928  0.85531133  0.94422289    -0.08700
C1575       C  0.33995476  0.82025751  0.93699878     0.61600
H1576       H  0.32503576  0.86473683  0.90881235     0.12300
H1577       H  0.34822289  0.91115758  0.99138922     0.12300
C1578       C  0.33319104  0.95546338  0.96401158     0.61900
F1579       F  0.33534220  0.81395494  0.91275347    -0.23300
F1580       F  0.31165584  0.78905876  0.94843512    -0.20600
F1581       F  0.37403409  0.82402485  0.94293233    -0.20300
F1582       F  0.29759738  0.94969036  0.96053339    -0.20400
F1583       F  0.35898031  0.98679712  0.95133961    -0.20700
F1584       F  0.34122369  0.96310935  0.98790744    -0.23400
C1585       C  0.44341092  0.60059711  0.05899899    -0.06200
C1586       C  0.43772728  0.62363998  0.07479297    -0.00300
C1587       C  0.95985859  0.66225423  0.07163995    -0.08800
C1588       C  0.98559445  0.67783574  0.05261908    -0.06200
C1589       C  0.99116250  0.65530596  0.03606453    -0.00300
C1590       C  0.46903392  0.61545843  0.03985762    -0.08700
C1591       C  0.47276706  0.58808291  0.02340588     0.61600
H1592       H  0.42712826  0.57043734  0.06177390     0.12300
H1593       H  0.00084282  0.70806997  0.05017747     0.12300
C1594       C  0.95242941  0.68775396  0.08750102     0.61900
F1595       F  0.45235240  0.55127665  0.03150355    -0.23300
F1596       F  0.50975916  0.59711754  0.02186605    -0.20600
F1597       F  0.45964281  0.58942811  0.00106046    -0.20300
F1598       F  0.96306384  0.68627833  0.11055156    -0.20400
F1599       F  0.91475628  0.67620901  0.08715209    -0.20700
F1600       F  0.97193642  0.72488873  0.07996069    -0.23400
C1601       C  0.14647736  0.66034836  0.89026801    -0.06200
C1602       C  0.13681138  0.66410912  0.86700897    -0.00300
C1603       C  0.11286579  0.67912293  0.86340040    -0.08800
C1604       C  0.09676890  0.68659825  0.88329643    -0.06200
C1605       C  0.10462109  0.68100567  0.90683392    -0.00300
C1606       C  0.13132805  0.66895106  0.91032521    -0.08700
C1607       C  0.14485855  0.66585548  0.93481243     0.61600
H1608       H  0.16580507  0.65004668  0.89258269     0.12300
H1609       H  0.07739944  0.69668898  0.88037468     0.12300
C1610       C  0.10500156  0.68831539  0.83863575     0.61900
F1611       F  0.17269901  0.65645020  0.93368641    -0.23300
F1612       F  0.11567365  0.63830500  0.94808925    -0.20600
F1613       F  0.15948684  0.70020908  0.94608676    -0.20300
F1614       F  0.08144617  0.65544876  0.82682541    -0.20400
F1615       F  0.13805543  0.70819868  0.82590128    -0.20700
F1616       F  0.08811667  0.71018485  0.83943204    -0.23400
C1617       C  0.39227097  0.58374929  0.91242680    -0.06200
C1618       C  0.39819753  0.55622416  0.90168562    -0.00300
C1619       C  0.43384559  0.55893380  0.90408584    -0.08800
C1620       C  0.46102878  0.58794835  0.91810053    -0.06200
C1621       C  0.45455908  0.61464718  0.92936227    -0.00300
C1622       C  0.41963146  0.61291092  0.92618288    -0.08700
C1623       C  0.41012378  0.64032258  0.93807947     0.61600
H1624       H  0.36541494  0.58195128  0.91034727     0.12300
H1625       H  0.99188082  0.60245400  0.91050335     0.12300
C1626       C  0.44398576  0.53185902  0.89218736     0.61900
F1627       F  0.37292363  0.62998240  0.93540658    -0.23300
F1628       F  0.43136152  0.67593231  0.92836098    -0.20600
F1629       F  0.41687368  0.64110812  0.96209702    -0.20300
F1630       F  0.43759993  0.53066697  0.86801690    -0.20400
F1631       F  0.41298439  0.98850753  0.91441196    -0.20700
F1632       F  0.98432518  0.56401010  0.87797311    -0.23400
C1633       C  0.12053256  0.84093638  0.91614319    -0.06200
C1634       C  0.12950435  0.82865794  0.93718506    -0.00300
C1635       C  0.16704086  0.84534228  0.94431978    -0.08800
C1636       C  0.19460161  0.87268171  0.92945686    -0.06200
C1637       C  0.18607889  0.88430282  0.90784798    -0.00300
C1638       C  0.14816559  0.86892444  0.90139129    -0.08700
C1639       C  0.13663233  0.88229772  0.87958691     0.61600
H1640       H  0.09145626  0.82750985  0.91103826     0.12300
H1641       H  0.22355999  0.88451773  0.93446621     0.12300
C1642       C  0.17825421  0.83293935  0.96677001     0.61900
F1643       F  0.09818860  0.86562573  0.87790807    -0.23300
F1644       F  0.14954360  0.87345661  0.85926124    -0.20600
F1645       F  0.15121485  0.92080504  0.88082614    -0.20300
F1646       F  0.16748905  0.79523668  0.96519521    -0.20400
F1647       F  0.16124888  0.83863141  0.98631235    -0.20700
F1648       F  0.21646991  0.85291753  0.97031337    -0.23400
C1649       C  0.48352476  0.79841761  0.97166025    -0.06200
C1650       C  0.47671317  0.76271139  0.97876617    -0.00300
C1651       C  0.44675572  0.74075401  0.99460801    -0.08800
C1652       C  0.42522180  0.75573771  0.00318445    -0.06200
C1653       C  0.43251422  0.79195083  0.99692337    -0.00300
C1654       C  0.46217178  0.81385373  0.98073528    -0.08700
C1655       C  0.47188969  0.85334583  0.97332733     0.61600
H1656       H  0.50717460  0.81500682  0.96000993     0.12300
H1657       H  0.40262580  0.73881374  0.01551899     0.12300
C1658       C  0.43595389  0.70159555  0.00354766     0.61900
F1659       F  0.49974952  0.86811582  0.95611315    -0.23300
F1660       F  0.48439799  0.87685337  0.99281246    -0.20600
F1661       F  0.44081835  0.85296962  0.96407878    -0.20300
F1662       F  0.94027325  0.70589360  0.02654453    -0.20400
F1663       F  0.45786072  0.68789089  0.99443143    -0.20700
F1664       F  0.39928630  0.67687904  0.99750542    -0.23400
C1665       C  0.20341349  0.77019053  0.03966998    -0.06200
C1666       C  0.22525993  0.75770477  0.02798188    -0.00300
C1667       C  0.20817316  0.72839041  0.01083383    -0.08800
C1668       C  0.17131453  0.71622633  0.00404568    -0.06200
C1669       C  0.15121322  0.73215361  0.01356123    -0.00300
C1670       C  0.16622931  0.75747123  0.03288700    -0.08700
C1671       C  0.14308719  0.77059301  0.04654613     0.61600
H1672       H  0.21615973  0.79136477  0.05334212     0.12300
H1673       H  0.15846406  0.69536707  0.99025815     0.12300
C1674       C  0.22813290  0.70954437  0.99950019     0.61900
F1675       F  0.15874888  0.78532733  0.06839953    -0.23300
F1676       F  0.10752061  0.74061339  0.05067590    -0.20600
F1677       F  0.14076884  0.79812616  0.03372252    -0.20300
F1678       F  0.24498292  0.69938480  0.01687846    -0.20400
F1679       F  0.25457298  0.73359975  0.98325290    -0.20700
F1680       F  0.20364647  0.67714375  0.98745668    -0.23400
O1681       O  0.51349269  0.14157486  0.95323537    -0.82200
C1682       C  0.59980649  0.29497624  0.95063363     0.97100
O1683       O  0.58249885  0.26790108  0.93679667    -0.71300
O1684       O  0.56182690  0.19987069  0.92377620    -0.74900
Al1685     Al  0.53842399  0.22303068  0.94169444     1.49000
C1686       C  0.58582105  0.19026873  0.92903535     0.92400
O1687       O  0.59354939  0.19241570  0.99769845    -0.81100
O1688       O  0.53971394  0.21036879  0.01792414    -0.74700
Al1689     Al  0.55356631  0.17246909  0.97480409     1.90100
O1690       O  0.61090021  0.25198890  0.99867524    -0.73800
O1691       O  0.52059871  0.24952388  0.99163194    -0.73600
O1692       O  0.59203621  0.29203537  0.97268013    -0.79300
O1693       O  0.51249483  0.24829695  0.95321907    -0.77500
O1694       O  0.55244130  0.21489701  0.96994775    -1.13600
O1695       O  0.98976781  0.17681306  0.94113096    -0.72800
C1696       C  0.98455267  0.14403676  0.94200806     0.97900
C1697       C  0.61649689  0.22562833  0.00399037     0.94300
Al1698     Al  0.56476805  0.24824893  0.99322773     1.55600
O1699       O  0.59029256  0.18465463  0.95055013    -0.77400
C1700       C  0.50400221  0.25278845  0.97407416     0.98500
C1701       C  0.51765102  0.17494886  0.01720648     0.93300
O1702       O  0.51712845  0.15676251  0.99905917    -0.82800
O1703       O  0.86686470  0.49944928  0.88264936    -0.82200
C1704       C  0.71656253  0.41442170  0.89575574     0.97100
O1705       O  0.74533158  0.43653353  0.90697734    -0.71300
O1706       O  0.81436033  0.45770617  0.91540681    -0.74900
Al1707     Al  0.78891516  0.47922989  0.89747247     1.49000
C1708       C  0.82290110  0.43248665  0.91069599     0.92400
O1709       O  0.81158921  0.41568755  0.84171125    -0.81100
O1710       O  0.78844678  0.46402305  0.82209211    -0.74700
Al1711     Al  0.83344158  0.45772154  0.86337218     1.90100
O1712       O  0.75241074  0.39491740  0.84679436    -0.73800
O1713       O  0.75121553  0.48391524  0.84863996    -0.73600
O1714       O  0.71552781  0.41647969  0.87328894    -0.79300
O1715       O  0.76153269  0.50324351  0.88520150    -0.77500
O1716       O  0.79198964  0.45923567  0.87019708    -1.13600
O1717       O  0.83246123  0.01508140  0.89926914    -0.72800
C1718       C  0.86337140  0.02177508  0.89096379     0.97900
C1719       C  0.77805502  0.39102828  0.83808194     0.94300
Al1720     Al  0.75497029  0.44130122  0.84950976     1.55600
O1721       O  0.82470661  0.42384407  0.88920718    -0.77400
C1722       C  0.74939186  0.50376341  0.86462519     0.98500
C1723       C  0.82305932  0.48875837  0.82126403     0.93300
O1724       O  0.84469226  0.49192850  0.83800140    -0.82800
O1725       O  0.86240922  0.40591636  0.29905091    -0.82200
C1726       C  0.70935853  0.34913419  0.27913235     0.97100
O1727       O  0.73162010  0.34160258  0.26833198    -0.71300
O1728       O  0.79093353  0.40533421  0.25518795    -0.74900
Al1729     Al  0.78363256  0.36064564  0.27102333     1.49000
C1730       C  0.81604109  0.43901371  0.25900416     0.92400
O1731       O  0.80186051  0.44686182  0.31778614    -0.81100
O1732       O  0.78161767  0.34976901  0.34265726    -0.74700
Al1733     Al  0.82901938  0.42298928  0.30796935     1.90100
O1734       O  0.75696191  0.40008355  0.33709464    -0.73800
O1735       O  0.73401165  0.30771747  0.31003099    -0.73600
O1736       O  0.71636026  0.36177789  0.30013750    -0.79300
O1737       O  0.77622171  0.31398049  0.28386951    -0.77500
O1738       O  0.78802173  0.38043361  0.29985688    -1.13600
O1739       O  0.83409141  0.37499105  0.26696824    -0.72800
C1740       C  0.86231208  0.38998963  0.27995748     0.97900
C1741       C  0.77495237  0.43458674  0.33224457     0.94300
Al1742     Al  0.75053104  0.35698692  0.32072123     1.55600
O1743       O  0.83493889  0.44755477  0.27789355    -0.77400
C1744       C  0.75103352  0.29432106  0.29887803     0.98500
C1745       C  0.81354540  0.37435936  0.34984399     0.93300
O1746       O  0.83128773  0.40619671  0.33966879    -0.82800
O1747       O  0.51104022  0.42154310  0.21837152    -0.82200
C1748       C  0.59117289  0.34873834  0.22493493     0.97100
O1749       O  0.57425855  0.36057866  0.23757269    -0.71300
O1750       O  0.55654985  0.41015048  0.24910343    -0.74900
Al1751     Al  0.53182966  0.36289549  0.23180730     1.49000
C1752       C  0.58153370  0.44323518  0.24314657     0.92400
O1753       O  0.59195039  0.44653166  0.17475092    -0.81100
O1754       O  0.53783028  0.37507162  0.15506444    -0.74700
Al1755     Al  0.55079157  0.42823783  0.19718162     1.90100
O1756       O  0.60790006  0.40341680  0.17646635    -0.73800
O1757       O  0.51493548  0.31710976  0.18246719    -0.73600
O1758       O  0.58452452  0.34354078  0.20285637    -0.79300
O1759       O  0.50471296  0.31108254  0.22085856    -0.77500
O1760       O  0.54779938  0.38414679  0.20338606    -1.13600
O1761       O  0.48686244  0.36314077  0.22940730    -0.72800
C1762       C  0.98447219  0.39131926  0.23010200     0.97900
C1763       C  0.61552139  0.43609236  0.17088776     0.94300
Al1764     Al  0.56033856  0.36170474  0.18107731     1.55600
O1765       O  0.58650812  0.45313062  0.22149708    -0.77400
C1766       C  0.49772543  0.29738945  0.20015889     0.98500
C1767       C  0.51520985  0.38770012  0.15528548     0.93300
O1768       O  0.51494001  0.40670921  0.17281312    -0.82800
O1769       O  0.88726597  0.03775694  0.12433669    -0.82200
C1770       C  0.81429899  0.11507722  0.10703266     0.97100
O1771       O  0.82688475  0.09685231  0.09658417    -0.71300
O1772       O  0.87605819  0.07664331  0.08972403    -0.74900
Al1773     Al  0.82867510  0.05504101  0.10685161     1.49000
C1774       C  0.90807807  0.10413064  0.09465270     0.92400
O1775       O  0.90954838  0.12545828  0.16180283    -0.81100
O1776       O  0.83755698  0.07170173  0.18254114    -0.74700
Al1777     Al  0.89289670  0.08101300  0.14225654     1.90100
O1778       O  0.86555768  0.13917217  0.15694017    -0.73800
O1779       O  0.78106255  0.04440041  0.15473958    -0.73600
O1780       O  0.80790295  0.11099963  0.12932446    -0.79300
O1781       O  0.77690554  0.02980248  0.11715639    -0.77500
O1782       O  0.84872098  0.07566975  0.13450854    -1.13600
O1783       O  0.82868976  0.01084748  0.11467729    -0.72800
C1784       C  0.85865318  0.01003934  0.11551352     0.97900
C1785       C  0.89786813  0.14861616  0.16352395     0.94300
Al1786     Al  0.82506151  0.09044921  0.15426987     1.55600
O1787       O  0.91695589  0.11380936  0.11600519    -0.77400
C1788       C  0.76215315  0.02563066  0.13747396     0.98500
C1789       C  0.85173611  0.05055400  0.18481052     0.93300
O1790       O  0.87213105  0.04864466  0.16870739    -0.82800
O1791       O  0.88643468  0.39351959  0.04978908    -0.82200
C1792       C  0.82031370  0.24110900  0.05821231     0.97100
O1793       O  0.83467649  0.27043951  0.07038208    -0.71300
O1794       O  0.87876637  0.33987381  0.08140856    -0.74900
Al1795     Al  0.83218568  0.31339873  0.06439855     1.49000
C1796       C  0.91205592  0.34893081  0.07596497     0.92400
O1797       O  0.91538192  0.33819930  0.00752018    -0.81100
O1798       O  0.84217741  0.31945897  0.98764706    -0.74700
Al1799     Al  0.89591813  0.36114541  0.02928054     1.90100
O1800       O  0.87199733  0.27905862  0.00879449    -0.73800
O1801       O  0.78534477  0.28420899  0.01594498    -0.73600
O1802       O  0.81388634  0.24229111  0.03623224    -0.79300
O1803       O  0.78027773  0.28420202  0.05455774    -0.77500
O1804       O  0.85282116  0.31949038  0.03577577    -1.13600
O1805       O  0.82836609  0.35664637  0.06108463    -0.72800
C1806       C  0.85692641  0.38876857  0.06004023     0.97900
C1807       C  0.90459162  0.30398423  0.00344429     0.94300
Al1808     Al  0.83043583  0.28426800  0.01391727     1.55600
O1809       O  0.92163761  0.35161882  0.05430808    -0.77400
C1810       C  0.76545213  0.27655511  0.03424088     0.98500
C1811       C  0.85499790  0.35475324  0.98700877     0.93300
O1812       O  0.87437346  0.37477740  0.00414672    -0.82800
O1813       O  0.60943775  0.12258226  0.78743415    -0.82200
C1814       C  0.75950812  0.18807376  0.77325559     0.97100
O1815       O  0.73001643  0.17839352  0.76218028    -0.71300
O1816       O  0.66092184  0.13138484  0.75440223    -0.74900
Al1817     Al  0.68714969  0.17874856  0.77109740     1.49000
C1818       C  0.65282420  0.09800359  0.75960179     0.92400
O1819       O  0.66617879  0.09532887  0.82814761    -0.81100
O1820       O  0.68927697  0.16886642  0.84719077    -0.74700
Al1821     Al  0.64322469  0.11467401  0.80681723     1.90100
O1822       O  0.72541976  0.13564004  0.82392999    -0.73800
O1823       O  0.72496043  0.22521332  0.81881569    -0.73600
O1824       O  0.76049399  0.19274543  0.79562406    -0.79300
O1825       O  0.71544636  0.23049805  0.78124146    -0.77500
O1826       O  0.68444059  0.15757972  0.79918988    -1.13600
O1827       O  0.64341346  0.18123320  0.77687495    -0.72800
C1828       C  0.61214951  0.15150057  0.77757049     0.97900
C1829       C  0.69990799  0.10469868  0.83140676     0.94300
Al1830     Al  0.72185641  0.17875203  0.81964688     1.55600
O1831       O  0.65103525  0.08826879  0.78126961    -0.77400
C1832       C  0.72769626  0.24510014  0.80127147     0.98500
C1833       C  0.65459729  0.15815642  0.84838038     0.93300
O1834       O  0.63259131  0.13834019  0.83211847    -0.82800
O1835       O  0.96769094  0.11870581  0.71639016    -0.82200
C1836       C  0.88289610  0.18651563  0.72606379     0.97100
O1837       O  0.89931321  0.17381630  0.73831593    -0.71300
O1838       O  0.92286438  0.12812486  0.74934863    -0.74900
Al1839     Al  0.94340309  0.17457433  0.73070007     1.49000
C1840       C  0.89873594  0.09429280  0.74442014     0.92400
O1841       O  0.88037125  0.08719535  0.67703985    -0.81100
O1842       O  0.92927293  0.15646104  0.65416293    -0.74700
Al1843     Al  0.92454451  0.10815767  0.69720273     1.90100
O1844       O  0.86303842  0.12924660  0.68013448    -0.73800
O1845       O  0.95585307  0.21555020  0.68010588    -0.73600
O1846       O  0.88908131  0.19159299  0.70385272    -0.79300
O1847       O  0.96656945  0.22603148  0.71793228    -0.77500
O1848       O  0.92599188  0.15138946  0.70316312    -1.13600
O1849       O  0.98992699  0.17768070  0.72625534    -0.72800
C1850       C  0.99321032  0.14889872  0.72539060     0.97900
C1851       C  0.85572179  0.09669644  0.67446773     0.94300
Al1852     Al  0.91049423  0.17153939  0.68137936     1.55600
O1853       O  0.89188488  0.08362607  0.72310332    -0.77400
C1854       C  0.97240193  0.23805240  0.69664497     0.98500
C1855       C  0.95346559  0.14606218  0.65328011     0.93300
O1856       O  0.95743583  0.12930140  0.67095907    -0.82800
O1857       O  0.97466882  0.39171215  0.45977705    -0.82200
C1858       C  0.86747443  0.23833609  0.45254302     0.97100
O1859       O  0.89740309  0.25516307  0.44077957    -0.71300
O1860       O  0.89764805  0.31429969  0.42309384    -0.74900
Al1861     Al  0.93356424  0.30660515  0.43933764     1.49000
C1862       C  0.89107667  0.34117965  0.42441185     0.92400
O1863       O  0.87576649  0.34173708  0.48435743    -0.81100
O1864       O  0.94723627  0.31724733  0.51065688    -0.74700
Al1865     Al  0.92531742  0.36309828  0.47206563     1.90100
O1866       O  0.87417252  0.29790064  0.50657744    -0.73800
O1867       O  0.93547777  0.26263724  0.48192427    -0.73600
O1868       O  0.86478403  0.24949140  0.47302074    -0.79300
O1869       O  0.97082148  0.29703850  0.45251234    -0.77500
O1870       O  0.92223311  0.31863393  0.46747685    -1.13600
O1871       O  0.97160219  0.35489798  0.43093324    -0.72800
C1872       C  0.98691590  0.38658130  0.44043352     0.97900
C1873       C  0.85934169  0.31651261  0.49981199     0.94300
Al1874     Al  0.90678700  0.28482661  0.49104532     1.55600
O1875       O  0.90365625  0.36372903  0.44179833    -0.77400
C1876       C  0.96316875  0.27228079  0.46843028     0.98500
C1877       C  0.95986209  0.35167542  0.51501973     0.93300
O1878       O  0.94834581  0.37037672  0.50317641    -0.82800
O1879       O  0.60638577  0.03729591  0.37966937    -0.82200
C1880       C  0.75409914  0.12425665  0.39513798     0.97100
O1881       O  0.72395123  0.10516292  0.40613060    -0.71300
O1882       O  0.65440843  0.08018894  0.41272572    -0.74900
Al1883     Al  0.68318304  0.06050411  0.39735293     1.49000
C1884       C  0.64824559  0.10646518  0.40651575     0.92400
O1885       O  0.66596909  0.12275907  0.33872096    -0.81100
O1886       O  0.68891276  0.07214693  0.32089106    -0.74700
Al1887     Al  0.64108068  0.07966730  0.36016031     1.90100
O1888       O  0.72456261  0.14066367  0.34484091    -0.73800
O1889       O  0.72025743  0.04902614  0.35032410    -0.73600
O1890       O  0.75761920  0.11797536  0.37342701    -0.79300
O1891       O  0.71412341  0.03853400  0.38852437    -0.77500
O1892       O  0.68157370  0.07800402  0.36874817    -1.13600
O1893       O  0.64100834  0.01359260  0.39139108    -0.72800
C1894       C  0.60963371  0.01129385  0.38955671     0.97900
C1895       C  0.70015300  0.14753889  0.33749772     0.94300
Al1896     Al  0.71982945  0.09371444  0.34892643     1.55600
O1897       O  0.64804776  0.11396866  0.38475104    -0.77400
C1898       C  0.72469567  0.03376865  0.36829832     0.98500
C1899       C  0.65420520  0.04849645  0.31932166     0.93300
O1900       O  0.63145438  0.04543619  0.33541778    -0.82800
O1901       O  0.60392550  0.51170443  0.62839971    -0.82200
C1902       C  0.64755773  0.40397850  0.61418571     0.97100
O1903       O  0.66168311  0.43548253  0.60402119    -0.71300
O1904       O  0.60085266  0.43344448  0.58779166    -0.74900
Al1905     Al  0.64454213  0.47012690  0.60403218     1.49000
C1906       C  0.56853012  0.42957359  0.58957007     0.92400
O1907       O  0.55336156  0.40870237  0.64838640    -0.81100
O1908       O  0.64884386  0.47970818  0.67632338    -0.74700
Al1909     Al  0.58154410  0.46013212  0.63835703     1.90100
O1910       O  0.59572948  0.40652968  0.67011811    -0.73800
O1911       O  0.69153001  0.47106648  0.64531323    -0.73600
O1912       O  0.63421156  0.39973857  0.63499527    -0.79300
O1913       O  0.69006537  0.50804330  0.61752371    -0.77500
O1914       O  0.62222229  0.45722976  0.63247213    -1.13600
O1915       O  0.63403277  0.01402844  0.60209711    -0.72800
C1916       C  0.61789420  0.02779423  0.61370021     0.97900
C1917       C  0.56274930  0.39163328  0.66299201     0.94300
Al1918     Al  0.64104623  0.44062871  0.65481996     1.55600
O1919       O  0.55980591  0.44237756  0.60746818    -0.77400
C1920       C  0.70723792  0.50142667  0.63365055     0.98500
C1921       C  0.62556164  0.48961260  0.68248343     0.93300
O1922       O  0.59603666  0.47884502  0.67040918    -0.82800
O1923       O  0.58329363  0.13629851  0.54609127    -0.82200
C1924       C  0.64533153  0.28716323  0.55593969     0.97100
O1925       O  0.63807701  0.25824999  0.56760043    -0.71300
O1926       O  0.59279480  0.18961967  0.57716045    -0.74900
Al1927     Al  0.63903643  0.21556702  0.55959502     1.49000
C1928       C  0.55931626  0.18058769  0.57285183     0.92400
O1929       O  0.55397181  0.19035122  0.50400402    -0.81100
O1930       O  0.62825778  0.21435820  0.48424543    -0.74700
Al1931     Al  0.57437598  0.16918001  0.52584960     1.90100
O1932       O  0.59363172  0.25026482  0.50563948    -0.73800
O1933       O  0.68495420  0.25384268  0.51125669    -0.73600
O1934       O  0.64985593  0.28814511  0.53355119    -0.79300
O1935       O  0.69006034  0.24388152  0.54865086    -0.77500
O1936       O  0.61715073  0.21150472  0.53189904    -1.13600
O1937       O  0.64187230  0.17188783  0.55457478    -0.72800
C1938       C  0.61256113  0.14032913  0.55570836     0.97900
C1939       C  0.56293329  0.22381782  0.49903823     0.94300
Al1940     Al  0.63739374  0.24849497  0.51048484     1.55600
O1941       O  0.54873038  0.17793365  0.55142006    -0.77400
C1942       C  0.70480434  0.25582829  0.52850730     0.98500
C1943       C  0.61678459  0.17920407  0.48403449     0.93300
O1944       O  0.59708792  0.15769700  0.50077497    -0.82800
C1945       C  0.58294601  0.05613945  0.59746348    -0.06200
C1946       C  0.61778711  0.06068382  0.60331281    -0.00300
C1947       C  0.65066772  0.09180111  0.59410700    -0.08800
C1948       C  0.64728383  0.11604853  0.57804950    -0.06200
C1949       C  0.61232352  0.11033376  0.57077732    -0.00300
C1950       C  0.57926110  0.07954929  0.58067559    -0.08700
C1951       C  0.54016023  0.07017121  0.57338921     0.61600
H1952       H  0.55832280  0.03210924  0.60488169     0.12300
H1953       H  0.67238421  0.13977156  0.57088338     0.12300
C1954       C  0.68923208  0.10042075  0.60194905     0.61900
F1955       F  0.51273724  0.03827048  0.58483472    -0.23300
F1956       F  0.53595193  0.06359209  0.54918861    -0.20600
F1957       F  0.53405418  0.09938031  0.57907775    -0.20300
F1958       F  0.67633315  0.54778136  0.56321426    -0.20400
F1959       F  0.69025042  0.10021821  0.62646924    -0.20700
F1960       F  0.71686170  0.13550043  0.59410385    -0.23400
C1961       C  0.64304816  0.37486908  0.57544051    -0.06200
C1962       C  0.64626782  0.37294315  0.60027895    -0.00300
C1963       C  0.65024631  0.34362941  0.61026528    -0.08800
C1964       C  0.65142227  0.31749351  0.59480396    -0.06200
C1965       C  0.64795486  0.31911773  0.56984471    -0.00300
C1966       C  0.64398714  0.34866461  0.55992753    -0.08700
C1967       C  0.64022011  0.35268741  0.53337027     0.61600
H1968       H  0.63956354  0.39737251  0.56814051     0.12300
H1969       H  0.65474909  0.29507231  0.60238772     0.12300
C1970       C  0.65384428  0.34010754  0.63690297     0.61900
F1971       F  0.63617067  0.38342847  0.52798102    -0.23300
F1972       F  0.60907641  0.32095589  0.52502344    -0.20600
F1973       F  0.67184828  0.35752496  0.52162520    -0.20300
F1974       F  0.62113658  0.33293105  0.64827597    -0.20400
F1975       F  0.68331451  0.37312290  0.64548580    -0.20700
F1976       F  0.66042148  0.31102613  0.64250210    -0.23400
C1977       C  0.65293881  0.12571554  0.44842796    -0.06200
C1978       C  0.64131967  0.12789476  0.42531458    -0.00300
C1979       C  0.62310269  0.14921565  0.42140303    -0.08800
C1980       C  0.61663484  0.16663705  0.44102835    -0.06200
C1981       C  0.62683682  0.16269451  0.46408042    -0.00300
C1982       C  0.64580019  0.14245701  0.46791728    -0.08700
C1983       C  0.65883472  0.13877200  0.49248875     0.61600
H1984       H  0.66738835  0.11014811  0.45131300     0.12300
H1985       H  0.60252960  0.18268039  0.43869436     0.12300
C1986       C  0.60940573  0.15296747  0.39706794     0.63100
F1987       F  0.68151574  0.12284974  0.49164189    -0.23300
F1988       F  0.62832663  0.11609527  0.50673537    -0.20600
F1989       F  0.67902740  0.17392282  0.50267614    -0.20300
F1990       F  0.58552805  0.11767028  0.38799381    -0.20400
F1991       F  0.63943215  0.17241284  0.38177184    -0.20700
F1992       F  0.59005385  0.17244853  0.39806333    -0.23400
C1993       C  0.99364293  0.40482177  0.54336439    -0.06200
C1994       C  0.98848712  0.37062658  0.53421883    -0.00300
C1995       C  0.01200249  0.35686058  0.54278779    -0.08800
C1996       C  0.03808169  0.37688773  0.56081586    -0.06200
C1997       C  0.54051397  0.40993158  0.57044856    -0.00300
C1998       C  0.51786339  0.42393160  0.56118170    -0.08700
C1999       C  0.52294095  0.46178308  0.56876946     0.61600
H2000       H  0.47361569  0.41339495  0.53681128     0.12300
H2001       H  0.05550550  0.36639964  0.56788806     0.12300
C2002       C  0.01111320  0.32211811  0.53257812     0.61900
F2003       F  0.50205308  0.47250071  0.55506646    -0.23300
F2004       F  0.56006767  0.48919928  0.56622197    -0.20600
F2005       F  0.51189295  0.46016069  0.59219194    -0.20300
F2006       F  0.01622765  0.32606689  0.50819224    -0.20400
F2007       F  0.97738138  0.29035282  0.53796435    -0.20700
F2008       F  0.03909890  0.31670320  0.54173894    -0.23400
C2009       C  0.53454370  0.45546347  0.43755582    -0.06200
C2010       C  0.51687151  0.42033874  0.42627483    -0.00300
C2011       C  0.52797651  0.41770324  0.40246213    -0.08800
C2012       C  0.55748305  0.44991266  0.39172859    -0.06200
C2013       C  0.57523284  0.48435943  0.40332958    -0.00300
C2014       C  0.55876424  0.94415387  0.39314462    -0.08700
C2015       C  0.56846127  0.93521139  0.36883444     0.61600
H2016       H  0.52581089  0.45758757  0.45538988     0.12300
H2017       H  0.56741075  0.44853511  0.37409035     0.12300
C2018       C  0.98767741  0.39868347  0.38722464     0.61900
F2019       F  0.54513341  0.89800051  0.36267385    -0.23300
F2020       F  0.60473913  0.94195089  0.36879249    -0.20600
F2021       F  0.56525974  0.95776752  0.35176707    -0.20300
F2022       F  0.95500864  0.39564683  0.39601289    -0.20400
F2023       F  0.98432298  0.36347027  0.38595023    -0.20700
F2024       F  0.99275657  0.41287966  0.36429036    -0.23400
C2025       C  0.77584527  0.17790578  0.42197526    -0.06200
C2026       C  0.78454643  0.15413855  0.40876818    -0.00300
C2027       C  0.81911903  0.15576960  0.41188935    -0.08800
C2028       C  0.84442361  0.18194307  0.42803868    -0.06200
C2029       C  0.83612362  0.20632998  0.44086498    -0.00300
C2030       C  0.80134356  0.20452550  0.43784877    -0.08700
C2031       C  0.79183009  0.23148892  0.45046049     0.61600
H2032       H  0.74870941  0.17546931  0.41960124     0.12300
H2033       H  0.87161691  0.18447591  0.43023975     0.12300
C2034       C  0.82894192  0.12977143  0.39847916     0.61900
F2035       F  0.75715434  0.22587148  0.44396239    -0.23300
F2036       F  0.81813628  0.26826399  0.44481769    -0.20600
F2037       F  0.79135057  0.22628659  0.47478917    -0.20300
F2038       F  0.83084686  0.13734457  0.37437980    -0.20400
F2039       F  0.80199062  0.09267106  0.40267960    -0.20700
F2040       F  0.86306562  0.13437482  0.40539131    -0.23400
C2041       C  0.52412049  0.27477771  0.46293935    -0.06200
C2042       C  0.98667942  0.25470995  0.47237806    -0.00300
C2043       C  0.97344342  0.22048071  0.48549383    -0.08800
C2044       C  0.99938639  0.21060086  0.49369442    -0.06200
C2045       C  0.53696328  0.23245253  0.48618669    -0.00300
C2046       C  0.54940262  0.26312467  0.46997478    -0.08700
C2047       C  0.58862771  0.28282315  0.45948866     0.61600
H2048       H  0.53398406  0.30022698  0.45243567     0.12300
H2049       H  0.99023658  0.18664655  0.50554207     0.12300
C2050       C  0.93240256  0.19415037  0.49132943     0.61900
F2051       F  0.59081916  0.30318011  0.43925230    -0.23300
F2052       F  0.59871764  0.25652086  0.45307444    -0.20600
F2053       F  0.61372224  0.30737079  0.47582104    -0.20300
F2054       F  0.91054824  0.19077513  0.47191895    -0.20400
F2055       F  0.92184319  0.20766533  0.51061509    -0.20700
F2056       F  0.92556911  0.15835617  0.49700349    -0.23400
C2057       C  0.76171610  0.30417712  0.50807270    -0.06200
C2058       C  0.74581479  0.27411390  0.52445715    -0.00300
C2059       C  0.76877737  0.26172722  0.53502799    -0.08800
C2060       C  0.80620118  0.27804686  0.52732849    -0.06200
C2061       C  0.82157502  0.30631736  0.50954671    -0.00300
C2062       C  0.79920916  0.32089013  0.50051670    -0.08700
C2063       C  0.81391444  0.35331440  0.48274492     0.61600
H2064       H  0.74396732  0.31408147  0.50074077     0.12300
H2065       H  0.82350059  0.26773911  0.53479597     0.12300
C2066       C  0.75371831  0.23047800  0.55357946     0.61900
F2067       F  0.78801401  0.36453546  0.47815722    -0.23300
F2068       F  0.82239054  0.34255455  0.46138825    -0.20600
F2069       F  0.84543987  0.38410919  0.49169593    -0.20300
F2070       F  0.72371302  0.19845388  0.54447453    -0.20400
F2071       F  0.74249560  0.24177409  0.57363347    -0.20700
F2072       F  0.78032398  0.22130656  0.56045153    -0.23400
C2073       C  0.01279616  0.15540838  0.63627751    -0.06200
C2074       C  0.97892333  0.15457660  0.63212910    -0.00300
C2075       C  0.97169654  0.16258868  0.60875500    -0.08800
C2076       C  0.99837769  0.17006072  0.59051097    -0.06200
C2077       C  0.53232009  0.17164095  0.59315378    -0.00300
C2078       C  0.54111461  0.16801643  0.61722642    -0.08700
C2079       C  0.57855093  0.17258968  0.62487412     0.61600
H2080       H  0.01832408  0.14979969  0.65412525     0.12300
H2081       H  0.99296209  0.17581486  0.57263178     0.12300
C2082       C  0.93621097  0.16324775  0.60282323     0.61900
F2083       F  0.57925581  0.16552139  0.64890054    -0.23300
F2084       F  0.60683163  0.20907835  0.62053011    -0.20600
F2085       F  0.58563308  0.14746853  0.61277481    -0.20300
F2086       F  0.93579401  0.19257142  0.61465298    -0.20400
F2087       F  0.90529816  0.12951512  0.60948552    -0.20700
F2088       F  0.93353894  0.16841749  0.57872438    -0.23400
C2089       C  0.49601437  0.28662893  0.66355192    -0.06200
C2090       C  0.99691228  0.27848718  0.68970596    -0.00300
C2091       C  0.01933911  0.30815443  0.70552306    -0.08800
C2092       C  0.04014540  0.34507879  0.69625486    -0.06200
C2093       C  0.53636287  0.35291755  0.67117660    -0.00300
C2094       C  0.51655294  0.32359775  0.65484948    -0.08700
C2095       C  0.51871186  0.33085351  0.62814296     0.61600
H2096       H  0.48045765  0.26446421  0.65093040     0.12300
H2097       H  0.05770344  0.36817143  0.70786551     0.12300
C2098       C  0.02196578  0.30141085  0.73181382     0.61900
F2099       F  0.50274411  0.35261582  0.62281165    -0.23300
F2100       F  0.50010894  0.29781212  0.61533587    -0.20600
F2101       F  0.55560945  0.34933816  0.62064853    -0.20300
F2102       F  0.03347418  0.27526049  0.73474690    -0.20400
F2103       F  0.98751789  0.28845854  0.74258766    -0.20700
F2104       F  0.04736099  0.33399026  0.74331855    -0.23400
C2105       C  0.79012353  0.08058009  0.66906743    -0.06200
C2106       C  0.81794754  0.07106046  0.66446466    -0.00300
C2107       C  0.80679975  0.53369169  0.64895565    -0.08800
C2108       C  0.77074143  0.51372135  0.63931616    -0.06200
C2109       C  0.74573844  0.03001742  0.64423945    -0.00300
C2110       C  0.75411859  0.06039548  0.65966837    -0.08700
C2111       C  0.72628815  0.07195090  0.66815310     0.61600
H2112       H  0.79620379  0.10391919  0.68074705     0.12300
H2113       H  0.76061817  0.48571083  0.63230928     0.12300
C2114       C  0.83101302  0.51546235  0.64872078     0.61900
F2115       F  0.72197565  0.06713532  0.69254918    -0.23300
F2116       F  0.69150642  0.05170320  0.65805121    -0.20600
F2117       F  0.74006520  0.10959156  0.66288183    -0.20300
F2118       F  0.84008088  0.51111216  0.67163679    -0.20400
F2119       F  0.86841192  0.05430806  0.63431091    -0.20700
F2120       F  0.81322530  0.48023097  0.63833244    -0.23400
C2121       C  0.65250585  0.04067712  0.74420067    -0.06200
C2122       C  0.64513652  0.07026338  0.74006505    -0.00300
C2123       C  0.63077829  0.07252152  0.71748210    -0.08800
C2124       C  0.62415460  0.04500647  0.70030115    -0.06200
C2125       C  0.63255563  0.51478939  0.70364769    -0.00300
C2126       C  0.66133283  0.52406192  0.72074110    -0.08700
C2127       C  0.68672136  0.50710179  0.72011193     0.61600
H2128       H  0.66375566  0.03929600  0.76127366     0.12300
H2129       H  0.61343502  0.04650558  0.68305092     0.12300
C2130       C  0.62165844  0.10318230  0.71123599     0.61900
F2131       F  0.71006913  0.51757230  0.73959628    -0.23300
F2132       F  0.70904774  0.51912114  0.69993090    -0.20600
F2133       F  0.66538656  0.46823799  0.72029618    -0.20300
F2134       F  0.65416000  0.13767606  0.70979396    -0.20400
F2135       F  0.59806716  0.10434280  0.72830448    -0.20700
F2136       F  0.60391981  0.09695660  0.68953442    -0.23400
C2137       C  0.58977266  0.17679333  0.74579169    -0.06200
C2138       C  0.58057100  0.14948740  0.76382052    -0.00300
C2139       C  0.54297769  0.11950761  0.76593893    -0.08800
C2140       C  0.01512138  0.12586846  0.75831436    -0.06200
C2141       C  0.52577821  0.14646340  0.73265422    -0.00300
C2142       C  0.56325912  0.17535477  0.72978576    -0.08700
C2143       C  0.57735489  0.20427720  0.70975122     0.61600
H2144       H  0.61852480  0.19895501  0.74339673     0.12300
H2145       H  0.98588477  0.10790481  0.76271728     0.12300
C2146       C  0.53024839  0.08812568  0.78436284     0.61900
F2147       F  0.60518672  0.20207168  0.69729641    -0.23300
F2148       F  0.59220203  0.23994508  0.71924058    -0.20600
F2149       F  0.55002996  0.19904129  0.69369352    -0.20300
F2150       F  0.49177211  0.06525499  0.78486926    -0.20400
F2151       F  0.54110222  0.10316222  0.80677987    -0.20700
F2152       F  0.03676632  0.07219632  0.79275593    -0.23400
C2153       C  0.82483982  0.20135772  0.77292218    -0.06200
C2154       C  0.79287764  0.19304120  0.75982279    -0.00300
C2155       C  0.79349114  0.18856984  0.73459763    -0.08800
C2156       C  0.82450488  0.18858529  0.72426950    -0.06200
C2157       C  0.85485143  0.19356981  0.73781211    -0.00300
C2158       C  0.85612925  0.20227852  0.76237539    -0.08700
C2159       C  0.88992713  0.21232899  0.77776644     0.61600
H2160       H  0.82483509  0.20594804  0.79187171     0.12300
H2161       H  0.82444694  0.18274551  0.70549692     0.12300
C2162       C  0.76190313  0.18301885  0.71820250     0.61900
F2163       F  0.88872500  0.22927892  0.79877121    -0.23300
F2164       F  0.92229452  0.23738763  0.76581424    -0.20600
F2165       F  0.89116840  0.18018268  0.78353827    -0.20300
F2166       F  0.75393680  0.21172911  0.72145974    -0.20400
F2167       F  0.73046121  0.14853203  0.72274794    -0.20700
F2168       F  0.77113756  0.18360020  0.69442653    -0.23400
C2169       C  0.82732355  0.45211874  0.09052966    -0.06200
C2170       C  0.85997687  0.47690666  0.10303175    -0.00300
C2171       C  0.89142238  0.47165223  0.10156706    -0.08800
C2172       C  0.88943975  0.44324758  0.08658183    -0.06200
C2173       C  0.85720607  0.41968387  0.07356258    -0.00300
C2174       C  0.82529186  0.42372237  0.07579965    -0.08700
C2175       C  0.78929301  0.39883774  0.06245325     0.61600
H2176       H  0.80293109  0.45529803  0.09201029     0.12300
H2177       H  0.91308769  0.43875003  0.08519431     0.12300
C2178       C  0.93107639  0.00666495  0.10721000     0.61900
F2179       F  0.76460661  0.41236860  0.06375372    -0.23300
F2180       F  0.77156739  0.36299129  0.07215416    -0.20600
F2181       F  0.79711404  0.39718773  0.03867101    -0.20300
F2182       F  0.92994469  0.00734297  0.13178672    -0.20400
F2183       F  0.94097743  0.04184208  0.09816283    -0.20700
F2184       F  0.95883587  0.99878748  0.10073936    -0.23400
C2185       C  0.81451530  0.17828382  0.05691052    -0.06200
C2186       C  0.81176327  0.20555342  0.07018954    -0.00300
C2187       C  0.80308345  0.19929144  0.09491062    -0.08800
C2188       C  0.80234657  0.16825146  0.10588313    -0.06200
C2189       C  0.80894275  0.14286235  0.09309859    -0.00300
C2190       C  0.81267682  0.14649731  0.06776398    -0.08700
C2191       C  0.81515794  0.11780944  0.05184191     0.61600
H2192       H  0.82002777  0.18304130  0.03799657     0.12300
H2193       H  0.79818199  0.16467265  0.12493479     0.12300
C2194       C  0.79485443  0.22503711  0.11008200     0.61900
F2195       F  0.81167500  0.12409088  0.02802633    -0.23300
F2196       F  0.78657612  0.08196149  0.05744557    -0.20600
F2197       F  0.84936441  0.11983826  0.05456077    -0.20300
F2198       F  0.77064810  0.23349927  0.09829404    -0.20400
F2199       F  0.82768142  0.25780255  0.11511360    -0.20700
F2200       F  0.77808847  0.20822748  0.13152373    -0.23400
C2201       C  0.48649723  0.35418958  0.11719391    -0.06200
C2202       C  0.48840433  0.37935114  0.13499085    -0.00300
C2203       C  0.95905158  0.38690881  0.13535687    -0.08800
C2204       C  0.93575173  0.37729384  0.11532131    -0.06200
C2205       C  0.93972323  0.35873432  0.09554861    -0.00300
C2206       C  0.96824997  0.34910144  0.09572310    -0.08700
C2207       C  0.97271080  0.32713941  0.07548672     0.61600
H2208       H  0.50473021  0.34239983  0.11850412     0.12300
H2209       H  0.91377182  0.38436120  0.11489333     0.12300
C2210       C  0.95113800  0.40577322  0.15612525     0.61900
F2211       F  0.48119531  0.29965239  0.08664325    -0.23300
F2212       F  0.98435657  0.34908643  0.05510372    -0.20600
F2213       F  0.42296034  0.28594785  0.07799606    -0.20300
F2214       F  0.98143095  0.44129605  0.15966531    -0.20400
F2215       F  0.45200417  0.40376715  0.17345495    -0.20700
F2216       F  0.92037780  0.41000872  0.15217557    -0.23400
C2217       C  0.45159943  0.19218145  0.19073611    -0.06200
C2218       C  0.92149653  0.18655160  0.17407930    -0.00300
C2219       C  0.91692403  0.21802653  0.16858101    -0.08800
C2220       C  0.94053003  0.25264468  0.17949797    -0.06200
C2221       C  0.46935203  0.25795522  0.19545356    -0.00300
C2222       C  0.47496129  0.22756411  0.20113441    -0.08700
C2223       C  0.50656053  0.23312047  0.21726929     0.61600
H2224       H  0.45566899  0.16867621  0.19488546     0.12300
H2225       H  0.93823785  0.27719003  0.17519531     0.12300
C2226       C  0.88867256  0.21626693  0.15059309     0.61900
F2227       F  0.50722246  0.20002118  0.22072742    -0.23300
F2228       F  0.50235392  0.24576658  0.23921067    -0.20600
F2229       F  0.54040377  0.25938937  0.20732178    -0.20300
F2230       F  0.85284973  0.19451255  0.15955255    -0.20400
F2231       F  0.89233458  0.20114558  0.12949718    -0.20700
F2232       F  0.89370935  0.25156461  0.14540923    -0.23400
C2233       C  0.66821339  0.44415934  0.14545446    -0.06200
C2234       C  0.65218993  0.46122729  0.15933456    -0.00300
C2235       C  0.66573812  0.99703995  0.15950112    -0.08800
C2236       C  0.70189715  0.01794075  0.14972945    -0.06200
C2237       C  0.72194300  0.00075420  0.14171825    -0.00300
C2238       C  0.70526269  0.96130358  0.14230808    -0.08700
C2239       C  0.72280691  0.44482828  0.12395954     0.61600
H2240       H  0.65221893  0.41409772  0.14252091     0.12300
H2241       H  0.71580521  0.04840060  0.14926246     0.12300
C2242       C  0.64679115  0.01796932  0.16917292     0.61900
F2243       F  0.69857998  0.40643130  0.12247033    -0.23300
F2244       F  0.75401290  0.45051011  0.13635253    -0.20600
F2245       F  0.73694450  0.95031689  0.11083717    -0.20300
F2246       F  0.63889000  0.00999015  0.19311881    -0.20400
F2247       F  0.61417772  0.00746290  0.15688442    -0.20700
F2248       F  0.66915002  0.05660088  0.16680291    -0.23400
C2249       C  0.63099191  0.98544647  0.30285317    -0.06200
C2250       C  0.63951270  0.02260987  0.29902826    -0.00300
C2251       C  0.63001862  0.03283511  0.27732270    -0.08800
C2252       C  0.61082744  0.00476181  0.26016634    -0.06200
C2253       C  0.60339962  0.47135086  0.26180703    -0.00300
C2254       C  0.61883516  0.46267601  0.28170741    -0.08700
C2255       C  0.61929060  0.42597539  0.28350025     0.61600
H2256       H  0.63868407  0.97850548  0.31972198     0.12300
H2257       H  0.60253093  0.01205768  0.24366936     0.12300
C2258       C  0.63961726  0.07313247  0.27272732     0.61900
F2259       F  0.64079140  0.42605513  0.30230936    -0.23300
F2260       F  0.63435199  0.42066444  0.26284415    -0.20600
F2261       F  0.58347030  0.39624799  0.28693344    -0.20300
F2262       F  0.67791480  0.09646279  0.27371716    -0.20400
F2263       F  0.62280779  0.08410018  0.28981313    -0.20700
F2264       F  0.62767367  0.07744655  0.25061118    -0.23400
C2265       C  0.83908528  0.33595421  0.36633558    -0.06200
C2266       C  0.83144153  0.36528312  0.36967537    -0.00300
C2267       C  0.84244682  0.38599117  0.39101635    -0.08800
C2268       C  0.86079853  0.37647129  0.40848399    -0.06200
C2269       C  0.86926253  0.34735674  0.40520706    -0.00300
C2270       C  0.85805665  0.32663146  0.38348185    -0.08700
C2271       C  0.86658060  0.29544443  0.37761593     0.61600
H2272       H  0.83115203  0.32125181  0.34967735     0.12300
H2273       H  0.86929098  0.39243790  0.42473102     0.12300
C2274       C  0.83472480  0.41802302  0.39528274     0.61900
F2275       F  0.85360429  0.28012157  0.35541292    -0.23300
F2276       F  0.84957083  0.26658881  0.39412899    -0.20600
F2277       F  0.90478135  0.30963905  0.37755030    -0.20300
F2278       F  0.79721045  0.40560389  0.39191430    -0.20400
F2279       F  0.83258752  0.93492711  0.38678662    -0.20700
F2280       F  0.84380550  0.43192992  0.41814962    -0.23400
C2281       C  0.85880514  0.00014671  0.23972374    -0.06200
C2282       C  0.82498708  0.46918171  0.24097362    -0.00300
C2283       C  0.79519905  0.96640338  0.22464213    -0.08800
C2284       C  0.80564996  0.99522810  0.20753801    -0.06200
C2285       C  0.84223301  0.02541633  0.20574760    -0.00300
C2286       C  0.86928732  0.02832277  0.22214011    -0.08700
C2287       C  0.90893332  0.06131811  0.22109804     0.61600
H2288       H  0.88381821  0.49242609  0.24629825     0.12300
H2289       H  0.78564065  0.99350001  0.19450996     0.12300
C2290       C  0.75545321  0.93361331  0.22452575     0.61900
F2291       F  0.93023862  0.06054804  0.23975705    -0.23300
F2292       F  0.90826187  0.09467513  0.22224976    -0.20600
F2293       F  0.92607687  0.06052884  0.20009305    -0.20300
F2294       F  0.73981727  0.92833678  0.24701718    -0.20400
F2295       F  0.74610007  0.41231583  0.22411082    -0.20700
F2296       F  0.73296875  0.93951752  0.20899054    -0.23400
C2297       C  0.92484763  0.42514344  0.26252542    -0.06200
C2298       C  0.89608101  0.39084373  0.27123303    -0.00300
C2299       C  0.89732366  0.35749620  0.26779970    -0.08800
C2300       C  0.92637655  0.35911884  0.25399399    -0.06200
C2301       C  0.95458370  0.39312334  0.24393198    -0.00300
C2302       C  0.95465050  0.42722864  0.24909602    -0.08700
C2303       C  0.98553059  0.46573024  0.24084566     0.61600
H2304       H  0.92285078  0.45017253  0.26556960     0.12300
H2305       H  0.92667123  0.33326948  0.25070328     0.12300
C2306       C  0.86779141  0.32026970  0.27844193     0.61900
F2307       F  0.98001956  0.49447770  0.24894796    -0.23300
F2308       F  0.98676195  0.46752999  0.21627225    -0.20600
F2309       F  0.01948864  0.47223915  0.24951373    -0.20300
F2310       F  0.83478817  0.30726990  0.26620127    -0.20400
F2311       F  0.86191175  0.32496391  0.30213603    -0.20700
F2312       F  0.87837042  0.29314946  0.27722523    -0.23400
C2313       C  0.61458507  0.33667909  0.26225471    -0.06200
C2314       C  0.61883441  0.34174403  0.23733335    -0.00300
C2315       C  0.65093486  0.34451827  0.22627234    -0.08800
C2316       C  0.67820293  0.34397487  0.24079130    -0.06200
C2317       C  0.67609750  0.34389971  0.26586101    -0.00300
C2318       C  0.64300045  0.33878898  0.27684226    -0.08700
C2319       C  0.63721948  0.33537725  0.30365027     0.61600
H2320       H  0.58926792  0.33305667  0.27052613     0.12300
H2321       H  0.70255913  0.34548227  0.23246631     0.12300
C2322       C  0.65774910  0.35014174  0.19961365     0.61900
F2323       F  0.60120226  0.32605818  0.31009764    -0.23300
F2324       F  0.66132347  0.36929331  0.31424060    -0.20600
F2325       F  0.64366078  0.30754683  0.31234366    -0.20300
F2326       F  0.65909526  0.38318738  0.19273983    -0.20400
F2327       F  0.62945603  0.32010331  0.18767260    -0.20700
F2328       F  0.69121633  0.35268196  0.19286053    -0.23400
C2329       C  0.70380957  0.18842007  0.30380940    -0.06200
C2330       C  0.71286095  0.18511910  0.32741700    -0.00300
C2331       C  0.73690748  0.21776296  0.34048602    -0.08800
C2332       C  0.75127508  0.25286574  0.32937499    -0.06200
C2333       C  0.74221444  0.25636860  0.30593532    -0.00300
C2334       C  0.71812483  0.22401427  0.29281725    -0.08700
C2335       C  0.70702657  0.22749395  0.26772289     0.61600
H2336       H  0.68575229  0.16314116  0.29413872     0.12300
H2337       H  0.76859956  0.27798020  0.33916671     0.12300
C2338       C  0.74671986  0.21592304  0.36631955     0.61900
F2339       F  0.68398645  0.19262979  0.25775319    -0.23300
F2340       F  0.73869135  0.24630231  0.25361208    -0.20600
F2341       F  0.68821710  0.24750690  0.26790142    -0.20300
F2342       F  0.77116870  0.20222394  0.36755076    -0.20400
F2343       F  0.71477648  0.19267165  0.37928827    -0.20700
F2344       F  0.76360620  0.25100451  0.37689402    -0.23400
C2345       C  0.77149270  0.02621374  0.34593524    -0.06200
C2346       C  0.74447702  0.01238810  0.36425986    -0.00300
C2347       C  0.71062533  0.46497578  0.36052473    -0.08800
C2348       C  0.72530775  0.44336817  0.35093186    -0.06200
C2349       C  0.77301906  0.96794307  0.34507700    -0.00300
C2350       C  0.78529917  0.00445540  0.33561899    -0.08700
C2351       C  0.81076475  0.01996996  0.31385935     0.61600
H2352       H  0.78010921  0.05387767  0.33867668     0.12300
H2353       H  0.70703623  0.41340097  0.34875082     0.12300
C2354       C  0.66970785  0.44652439  0.36765516     0.61900
F2355       F  0.81704709  0.05523501  0.30722869    -0.23300
F2356       F  0.79457062  0.99623281  0.29474577    -0.20600
F2357       F  0.84510159  0.02337504  0.31864250    -0.20300
F2358       F  0.65260634  0.46330934  0.35577018    -0.20400
F2359       F  0.66691113  0.45057264  0.39184723    -0.20700
F2360       F  0.65056508  0.40850103  0.36242851    -0.23400
C2361       C  0.85696631  0.00804982  0.78523949    -0.06200
C2362       C  0.83897854  0.51429501  0.80043709    -0.00300
C2363       C  0.85870446  0.55391910  0.80295541    -0.08800
C2364       C  0.85879484  0.07661243  0.78047778    -0.06200
C2365       C  0.87806927  0.06705978  0.76385542    -0.00300
C2366       C  0.87680594  0.03195017  0.76599384    -0.08700
C2367       C  0.89654876  0.01977474  0.74825637     0.61600
H2368       H  0.85617592  0.98140113  0.78736924     0.12300
H2369       H  0.85965428  0.10327884  0.77827555     0.12300
C2370       C  0.86045136  0.57243235  0.82666335     0.61900
F2371       F  0.89517632  0.98667621  0.75518973    -0.23300
F2372       F  0.93366804  0.04722640  0.74613218    -0.20600
F2373       F  0.87969351  0.01383695  0.72631162    -0.20300
F2374       F  0.88232229  0.56603972  0.84226632    -0.20400
F2375       F  0.82490633  0.55784729  0.83616777    -0.20700
F2376       F  0.87567000  0.61098514  0.82435841    -0.23400
C2377       C  0.74631510  0.06221255  0.86879838    -0.06200
C2378       C  0.73115008  0.02636631  0.85855604    -0.00300
C2379       C  0.70544445  0.51694193  0.83992783    -0.08800
C2380       C  0.69349770  0.04247117  0.83295048    -0.06200
C2381       C  0.70972754  0.07832101  0.84256813    -0.00300
C2382       C  0.73611378  0.08854057  0.86109013    -0.08700
C2383       C  0.75256380  0.12655536  0.87316966     0.61600
H2384       H  0.76677503  0.06977294  0.88272062     0.12300
H2385       H  0.67352908  0.03589614  0.81880396     0.12300
C2386       C  0.68829094  0.47941161  0.82698351     0.61900
F2387       F  0.77401723  0.12885398  0.89259343    -0.23300
F2388       F  0.72404443  0.13231639  0.88107111    -0.20600
F2389       F  0.77516950  0.15491710  0.85742714    -0.20300
F2390       F  0.67620919  0.45025693  0.84317373    -0.20400
F2391       F  0.71426146  0.47885102  0.81160049    -0.20700
F2392       F  0.65769428  0.47304455  0.81357193    -0.23400
C2393       C  0.79058627  0.34049273  0.82711354    -0.06200
C2394       C  0.76853098  0.35714044  0.82406949    -0.00300
C2395       C  0.73729767  0.34027780  0.80855028    -0.08800
C2396       C  0.72618436  0.30432777  0.79949011    -0.06200
C2397       C  0.74581957  0.28583980  0.80508165    -0.00300
C2398       C  0.78004960  0.30516211  0.81754594    -0.08700
C2399       C  0.80489542  0.28824668  0.82172836     0.61600
H2400       H  0.81506179  0.35429657  0.83825754     0.12300
H2401       H  0.70069804  0.28941721  0.78936434     0.12300
C2402       C  0.71558570  0.35965298  0.80147964     0.61900
F2403       F  0.84096845  0.31574224  0.82720129    -0.23300
F2404       F  0.80678091  0.27024016  0.80146251    -0.20600
F2405       F  0.79097140  0.26293230  0.84046810    -0.20300
F2406       F  0.74005161  0.39647429  0.79477324    -0.20400
F2407       F  0.69356052  0.35902134  0.82027130    -0.20700
F2408       F  0.69240857  0.34200611  0.78239098    -0.23400
C2409       C  0.82318621  0.37595391  0.92709530    -0.06200
C2410       C  0.83156776  0.41335032  0.93043247    -0.00300
C2411       C  0.84886640  0.43154667  0.95200881    -0.08800
C2412       C  0.85602579  0.41124877  0.96947989    -0.06200
C2413       C  0.84696219  0.37348470  0.96649893    -0.00300
C2414       C  0.83031136  0.35552466  0.94462926    -0.08700
C2415       C  0.81981567  0.31506869  0.93944487     0.61600
H2416       H  0.81020281  0.36245659  0.91054998     0.12300
H2417       H  0.86854412  0.42503104  0.98603284     0.12300
C2418       C  0.86086505  0.47258207  0.95663616     0.61900
F2419       F  0.80693268  0.30466693  0.91648303    -0.23300
F2420       F  0.79170293  0.29099343  0.95484814    -0.20600
F2421       F  0.85068553  0.31066790  0.94200953    -0.20300
F2422       F  0.82977081  0.47667820  0.95911530    -0.20400
F2423       F  0.88287768  0.49473052  0.93798986    -0.20700
F2424       F  0.88155572  0.48579390  0.97721844    -0.23400
C2425       C  0.93985685  0.10006165  0.05845257    -0.06200
C2426       C  0.93596987  0.12303515  0.07524778    -0.00300
C2427       C  0.46387927  0.16222364  0.07492495    -0.08800
C2428       C  0.48914266  0.17763618  0.05571019    -0.06200
C2429       C  0.49162985  0.15514826  0.03769873    -0.00300
C2430       C  0.96563243  0.11493587  0.03943338    -0.08700
C2431       C  0.96889526  0.08741160  0.02281996     0.61600
H2432       H  0.92236064  0.06987900  0.06051056     0.12300
H2433       H  0.50679058  0.20788118  0.05445849     0.12300
C2434       C  0.46111949  0.18824563  0.09295793     0.61900
F2435       F  0.94779438  0.05051812  0.03067502    -0.23300
F2436       F  0.00567655  0.09568380  0.02150704    -0.20600
F2437       F  0.95632406  0.08938435  0.00041679    -0.20300
F2438       F  0.47367699  0.18382574  0.11479784    -0.20400
F2439       F  0.42440456  0.17990500  0.09506778    -0.20700
F2440       F  0.48240672  0.22569832  0.08631749    -0.23400
C2441       C  0.64731687  0.16222650  0.89208607    -0.06200
C2442       C  0.63941219  0.16903155  0.86900118    -0.00300
C2443       C  0.61739801  0.18633386  0.86593698    -0.08800
C2444       C  0.60169070  0.19355289  0.88607274    -0.06200
C2445       C  0.60729567  0.18455989  0.90931902    -0.00300
C2446       C  0.63177420  0.16966455  0.91244052    -0.08700
C2447       C  0.64161350  0.16122419  0.93682231     0.61600
H2448       H  0.66509237  0.14997120  0.89397026     0.12300
H2449       H  0.58405906  0.20581358  0.88354880     0.12300
C2450       C  0.61069568  0.19765777  0.84150124     0.61900
F2451       F  0.66683074  0.14835978  0.93541632    -0.23300
F2452       F  0.60980529  0.13366655  0.94813876    -0.20600
F2453       F  0.65779355  0.19364837  0.95029881    -0.20300
F2454       F  0.58734664  0.16590280  0.82875185    -0.20400
F2455       F  0.64422242  0.21803328  0.82935718    -0.20700
F2456       F  0.59408617  0.21974651  0.84290650    -0.23400
C2457       C  0.89562244  0.08693649  0.90533321    -0.06200
C2458       C  0.89716337  0.05411300  0.90101207    -0.00300
C2459       C  0.92704421  0.05067090  0.91042193    -0.08800
C2460       C  0.95347422  0.07982291  0.92472304    -0.06200
C2461       C  0.95255163  0.11319607  0.92882722    -0.00300
C2462       C  0.92291954  0.11693126  0.91868796    -0.08700
C2463       C  0.91914413  0.15178258  0.92179692     0.61600
H2464       H  0.87227730  0.08867155  0.89810923     0.12300
H2465       H  0.48585301  0.08431221  0.92900297     0.12300
C2466       C  0.93088229  0.01624101  0.90583304     0.61900
F2467       F  0.88589378  0.14682785  0.91275220    -0.23300
F2468       F  0.94787900  0.18193617  0.90981531    -0.20600
F2469       F  0.91990164  0.16008492  0.94567641    -0.20300
F2470       F  0.93455891  0.01267124  0.88166931    -0.20400
F2471       F  0.93341096  0.51014111  0.88850378    -0.20700
F2472       F  0.47437025  0.02822179  0.91219921    -0.23400
C2473       C  0.62025267  0.34731197  0.92216969    -0.06200
C2474       C  0.62995127  0.32979864  0.94001092    -0.00300
C2475       C  0.66774937  0.34029724  0.94325047    -0.08800
C2476       C  0.69479410  0.36798747  0.92825673    -0.06200
C2477       C  0.68519516  0.38491822  0.90990973    -0.00300
C2478       C  0.64738490  0.37504532  0.90704880    -0.08700
C2479       C  0.63573198  0.39362752  0.88831866     0.61600
H2480       H  0.59092974  0.33796278  0.91961347     0.12300
H2481       H  0.72389538  0.37606671  0.93040522     0.12300
C2482       C  0.67921465  0.32131221  0.96189603     0.61900
F2483       F  0.59835374  0.38307041  0.89045573    -0.23300
F2484       F  0.64143864  0.38326644  0.86600524    -0.20600
F2485       F  0.65651825  0.43233068  0.89058259    -0.20300
F2486       F  0.66198328  0.28306253  0.95760837    -0.20400
F2487       F  0.66872447  0.32726191  0.98407564    -0.20700
F2488       F  0.71743599  0.33541904  0.96198765    -0.23400
C2489       C  0.97805227  0.29487823  0.96659082    -0.06200
C2490       C  0.97347921  0.26103844  0.97600294    -0.00300
C2491       C  0.94488725  0.24077109  0.99306392    -0.08800
C2492       C  0.92414533  0.25669603  0.00161744    -0.06200
C2493       C  0.92965596  0.29135947  0.99323427    -0.00300
C2494       C  0.95623550  0.31039850  0.97482153    -0.08700
C2495       C  0.96130138  0.34643974  0.96376436     0.61600
H2496       H  0.00007380  0.30997568  0.95359136     0.12300
H2497       H  0.90322600  0.24161689  0.01530602     0.12300
C2498       C  0.93487708  0.20246226  0.00324327     0.61900
F2499       F  0.98590578  0.35811518  0.94464414    -0.23300
F2500       F  0.97528743  0.37485511  0.98042989    -0.20600
F2501       F  0.92733484  0.34077890  0.95569905    -0.20300
F2502       F  0.44851231  0.21073361  0.03101140    -0.20400
F2503       F  0.95368344  0.18644223  0.99248412    -0.20700
F2504       F  0.89705747  0.17794428  0.00036807    -0.23400
C2505       C  0.70550819  0.27545525  0.04025604    -0.06200
C2506       C  0.72462380  0.25800385  0.03120117    -0.00300
C2507       C  0.70512727  0.22500515  0.01726879    -0.08800
C2508       C  0.66869789  0.21388467  0.01003809    -0.06200
C2509       C  0.65122786  0.23426535  0.01651103    -0.00300
C2510       C  0.66857793  0.26372424  0.03342917    -0.08700
C2511       C  0.64835664  0.28234251  0.04464278     0.61600
H2512       H  0.72035177  0.29965420  0.05166034     0.12300
H2513       H  0.65441382  0.19034288  0.99806161     0.12300
C2514       C  0.72249834  0.20153291  0.00980970     0.61900
F2515       F  0.66687243  0.30293350  0.06451517    -0.23300
F2516       F  0.61280438  0.25520157  0.05173544    -0.20600
F2517       F  0.64593790  0.30660898  0.02865672    -0.20300
F2518       F  0.73842801  0.19454176  0.02928223    -0.20400
F2519       F  0.74931900  0.22021243  0.99242471    -0.20700
F2520       F  0.69615502  0.16709777  0.00068779    -0.23400
O2521       O  0.51070458  0.63958239  0.95215245    -0.82200
C2522       C  0.60064458  0.79223903  0.94902747     0.97100
O2523       O  0.58195694  0.76526598  0.93544518    -0.71300
O2524       O  0.56006259  0.69743170  0.92211236    -0.74900
Al2525     Al  0.53761955  0.72137684  0.94053855     1.49000
C2526       C  0.58319565  0.68670679  0.92741279     0.92400
O2527       O  0.59245687  0.68903411  0.99601653    -0.81100
O2528       O  0.54029687  0.70949005  0.01696767    -0.74700
Al2529     Al  0.55161916  0.66988581  0.97351763     1.90100
O2530       O  0.61140036  0.74899281  0.99690919    -0.73800
O2531       O  0.52267701  0.74976994  0.99083331    -0.73600
O2532       O  0.59385418  0.79004782  0.97117130    -0.79300
O2533       O  0.51283842  0.74746628  0.95255939    -0.77500
O2534       O  0.55187241  0.71296384  0.96869007    -1.13600
O2535       O  0.99091984  0.67824763  0.94159491    -0.72800
C2536       C  0.98686696  0.64584895  0.94245430     0.97900
C2537       C  0.61627559  0.72212543  0.00205662     0.94300
Al2538     Al  0.56587251  0.74677944  0.99193650     1.55600
O2539       O  0.58748579  0.68070374  0.94890526    -0.77400
C2540       C  0.50547167  0.75270713  0.97354239     0.98500
C2541       C  0.51709383  0.67432010  0.01631425     0.93300
O2542       O  0.51577817  0.65564127  0.99819360    -0.82800
O2543       O  0.86530889  0.00057470  0.87556831    -0.82200
C2544       C  0.71327826  0.90645106  0.89055792     0.97100
O2545       O  0.73234544  0.93790648  0.90065718    -0.71300
O2546       O  0.79459531  0.94384000  0.91644638    -0.74900
Al2547     Al  0.78344763  0.97555113  0.89704138     1.49000
C2548       C  0.81332524  0.92746041  0.91297401     0.92400
O2549       O  0.80205846  0.90238202  0.85074208    -0.81100
O2550       O  0.78487551  0.98164029  0.82774583    -0.74700
Al2551     Al  0.82924731  0.95254695  0.86337245     1.90100
O2552       O  0.76163388  0.90866542  0.83054947    -0.73800
O2553       O  0.73023483  0.96859080  0.85885016    -0.73600
O2554       O  0.72025629  0.90082759  0.86935551    -0.79300
O2555       O  0.77227556  0.01109960  0.88094485    -0.77500
O2556       O  0.78923575  0.95666341  0.86994513    -1.13600
O2557       O  0.83342725  0.52521880  0.89136639    -0.72800
C2558       C  0.86464468  0.52676624  0.89090680     0.97900
C2559       C  0.77730092  0.89039385  0.83505585     0.94300
Al2560     Al  0.75289173  0.94137649  0.84868163     1.55600
O2561       O  0.82767901  0.92874387  0.89281524    -0.77400
C2562       C  0.74540264  0.00110704  0.86668052     0.98500
C2563       C  0.81815318  0.99067659  0.82184871     0.93300
O2564       O  0.83585229  0.97695267  0.83265935    -0.82800
O2565       O  0.86338816  0.90525162  0.29726527    -0.82200
C2566       C  0.70925858  0.85094092  0.28129237     0.97100
O2567       O  0.73066952  0.84211212  0.27083075    -0.71300
O2568       O  0.78943158  0.90538883  0.25652973    -0.74900
Al2569     Al  0.78248557  0.86125491  0.27247904     1.49000
C2570       C  0.81489792  0.93916833  0.25954977     0.92400
O2571       O  0.80932985  0.95071504  0.32016923    -0.81100
O2572       O  0.78232908  0.85445154  0.34516783    -0.74700
Al2573     Al  0.83217799  0.92401023  0.30807473     1.90100
O2574       O  0.75980707  0.90590610  0.33728157    -0.73800
O2575       O  0.73504406  0.81112731  0.31319191    -0.73600
O2576       O  0.71754040  0.86554496  0.30173026    -0.79300
O2577       O  0.77537974  0.81540060  0.28593926    -0.77500
O2578       O  0.78919958  0.88251164  0.30111947    -1.13600
O2579       O  0.83183820  0.87445351  0.26625552    -0.72800
C2580       C  0.86120479  0.88900276  0.27798322     0.97900
C2581       C  0.78150357  0.94031901  0.33360244     0.94300
Al2582     Al  0.75199349  0.86129264  0.32251874     1.55600
O2583       O  0.83521672  0.94827485  0.27796532    -0.77400
C2584       C  0.75088472  0.79679754  0.30157232     0.98500
C2585       C  0.81596227  0.87633279  0.35073492     0.93300
O2586       O  0.83624695  0.90631490  0.33906247    -0.82800
O2587       O  0.50796563  0.91725041  0.22056247    -0.82200
C2588       C  0.58810111  0.84449991  0.22751854     0.97100
O2589       O  0.57088128  0.85605720  0.24012100    -0.71300
O2590       O  0.55318275  0.90585777  0.25150269    -0.74900
Al2591     Al  0.52861221  0.85862315  0.23418341     1.49000
C2592       C  0.57860300  0.93878435  0.24559237     0.92400
O2593       O  0.58897181  0.94238446  0.17705749    -0.81100
O2594       O  0.53539158  0.87147907  0.15745910    -0.74700
Al2595     Al  0.54799035  0.92411170  0.19960380     1.90100
O2596       O  0.60539486  0.89978876  0.17911091    -0.73800
O2597       O  0.51269281  0.81362975  0.18486822    -0.73600
O2598       O  0.58182007  0.83965404  0.20538806    -0.79300
O2599       O  0.50160193  0.80702900  0.22317437    -0.77500
O2600       O  0.54490506  0.88003702  0.20580017    -1.13600
O2601       O  0.48361768  0.85876985  0.23155184    -0.72800
C2602       C  0.98315896  0.89200803  0.22640106     0.97900
C2603       C  0.61265136  0.93217152  0.17301506     0.94300
Al2604     Al  0.55781772  0.85795529  0.18355516     1.55600
O2605       O  0.58382377  0.94864113  0.22391758    -0.77400
C2606       C  0.49490126  0.79379860  0.20238406     0.98500
C2607       C  0.51296732  0.88438584  0.15753963     0.93300
O2608       O  0.51224456  0.90290200  0.17520245    -0.82800
O2609       O  0.88908343  0.53671815  0.12371424    -0.82200
C2610       C  0.81843310  0.61625598  0.10670110     0.97100
O2611       O  0.83263867  0.59955792  0.09613787    -0.71300
O2612       O  0.87974913  0.57644577  0.08898579    -0.74900
Al2613     Al  0.83233942  0.55634070  0.10593740     1.49000
C2614       C  0.91183041  0.60366149  0.09399976     0.92400
O2615       O  0.91280960  0.62564913  0.16109488    -0.81100
O2616       O  0.84115170  0.57176129  0.18203786    -0.74700
Al2617     Al  0.89601384  0.58067601  0.14161128     1.90100
O2618       O  0.86807326  0.63849837  0.15628884    -0.73800
O2619       O  0.78528447  0.54313535  0.15396518    -0.73600
O2620       O  0.81036266  0.61021392  0.12877863    -0.79300
O2621       O  0.78022673  0.53256282  0.11581826    -0.77500
O2622       O  0.85222470  0.57589907  0.13380088    -1.13600
O2623       O  0.83058360  0.51132439  0.11369048    -0.72800
C2624       C  0.85994165  0.50939170  0.11491996     0.97900
C2625       C  0.90047498  0.64836419  0.16285422     0.94300
Al2626     Al  0.82822635  0.58987159  0.15367599     1.55600
O2627       O  0.92054116  0.61330518  0.11536397    -0.77400
C2628       C  0.76572237  0.52677854  0.13633887     0.98500
C2629       C  0.85523490  0.55057667  0.18438250     0.93300
O2630       O  0.87518104  0.54838065  0.16811686    -0.82800
O2631       O  0.88570751  0.89501322  0.04929630    -0.82200
C2632       C  0.82219742  0.74252225  0.05874498     0.97100
O2633       O  0.83422283  0.77184761  0.07075140    -0.71300
O2634       O  0.87864368  0.84152108  0.08071447    -0.74900
Al2635     Al  0.83179865  0.81467373  0.06383924     1.49000
C2636       C  0.91189961  0.85073692  0.07485755     0.92400
O2637       O  0.91591517  0.84129651  0.00656949    -0.81100
O2638       O  0.84328674  0.81905489  0.98737244    -0.74700
Al2639     Al  0.89527456  0.86290245  0.02862230     1.90100
O2640       O  0.87545883  0.78166298  0.01012674    -0.73800
O2641       O  0.78624798  0.78193842  0.01496221    -0.73600
O2642       O  0.81684569  0.74322349  0.03657623    -0.79300
O2643       O  0.78006372  0.78504756  0.05331812    -0.77500
O2644       O  0.85297247  0.82049238  0.03547211    -1.13600
O2645       O  0.82773996  0.85791278  0.06011283    -0.72800
C2646       C  0.85620558  0.89014443  0.05953873     0.97900
C2647       C  0.90730344  0.80730353  0.00400621     0.94300
Al2648     Al  0.83241043  0.78452366  0.01397106     1.55600
O2649       O  0.92157532  0.85414527  0.05320584    -0.77400
C2650       C  0.76579371  0.77535058  0.03286197     0.98500
C2651       C  0.85273580  0.85368302  0.98711993     0.93300
O2652       O  0.87176208  0.87474795  0.00400094    -0.82800
O2653       O  0.61047122  0.62291403  0.78676305    -0.82200
C2654       C  0.76018915  0.68527120  0.77196706     0.97100
O2655       O  0.73038316  0.67398809  0.76091594    -0.71300
O2656       O  0.66062812  0.62802454  0.75345187    -0.74900
Al2657     Al  0.68834073  0.67634226  0.76920644     1.49000
C2658       C  0.65218751  0.59493204  0.75977796     0.92400
O2659       O  0.66677973  0.59582807  0.82808376    -0.81100
O2660       O  0.69102207  0.67059510  0.84578420    -0.74700
Al2661     Al  0.64392151  0.61480871  0.80637421     1.90100
O2662       O  0.72616664  0.63553116  0.82338469    -0.73800
O2663       O  0.72661224  0.72523752  0.81615932    -0.73600
O2664       O  0.76150544  0.69169341  0.79413142    -0.79300
O2665       O  0.71775991  0.72864247  0.77818876    -0.77500
O2666       O  0.68542482  0.65684374  0.79793998    -1.13600
O2667       O  0.64563936  0.68069105  0.77442938    -0.72800
C2668       C  0.61389983  0.65183949  0.77641506     0.97900
C2669       C  0.70047262  0.60484145  0.83112419     0.94300
Al2670     Al  0.72313282  0.67881334  0.81816452     1.55600
O2671       O  0.65071758  0.58655475  0.78163047    -0.77400
C2672       C  0.72945343  0.74416719  0.79807898     0.98500
C2673       C  0.65636334  0.65985548  0.84726930     0.93300
O2674       O  0.63400882  0.63998391  0.83118201    -0.82800
O2675       O  0.96603613  0.61362258  0.71251311    -0.82200
C2676       C  0.88194411  0.68128002  0.72469082     0.97100
O2677       O  0.89826452  0.66792396  0.73642542    -0.71300
O2678       O  0.92189755  0.62173586  0.74562311    -0.74900
Al2679     Al  0.94231616  0.66910643  0.72806825     1.49000
C2680       C  0.89647163  0.58844086  0.74047551     0.92400
O2681       O  0.88027369  0.58472001  0.67238976    -0.81100
O2682       O  0.92847021  0.65489482  0.65181974    -0.74700
Al2683     Al  0.92352920  0.60435856  0.69328122     1.90100
O2684       O  0.86221404  0.62575328  0.67770092    -0.73800
O2685       O  0.95424482  0.71263143  0.67855259    -0.73600
O2686       O  0.88783498  0.68699777  0.70251005    -0.79300
O2687       O  0.96533796  0.72122787  0.71643599    -0.77500
O2688       O  0.92497070  0.64732666  0.70026101    -1.13600
O2689       O  0.98852422  0.67239596  0.72274419    -0.72800
C2690       C  0.99189993  0.64372668  0.72137373     0.97900
C2691       C  0.85560216  0.59422211  0.67021807     0.94300
Al2692     Al  0.90930543  0.66829513  0.67934456     1.55600
O2693       O  0.88985447  0.57880595  0.71891795    -0.77400
C2694       C  0.97070479  0.73436205  0.69543031     0.98500
C2695       C  0.95309786  0.64511273  0.65060764     0.93300
O2696       O  0.95737648  0.62716536  0.66743382    -0.82800
O2697       O  0.97600783  0.89281317  0.46032664    -0.82200
C2698       C  0.87199475  0.73854753  0.45030741     0.97100
O2699       O  0.90226698  0.75665361  0.43902460    -0.71300
O2700       O  0.90097598  0.81565733  0.42257868    -0.74900
Al2701     Al  0.93730995  0.80848005  0.43870160     1.49000
C2702       C  0.89315767  0.84163101  0.42448354     0.92400
O2703       O  0.87696553  0.83914362  0.48504335    -0.81100
O2704       O  0.94909991  0.81552491  0.51051695    -0.74700
Al2705     Al  0.92652761  0.86208037  0.47254783     1.90100
O2706       O  0.87536233  0.79402865  0.50585360    -0.73800
O2707       O  0.93947329  0.76295265  0.48034948    -0.73600
O2708       O  0.86854290  0.74826936  0.47108036    -0.79300
O2709       O  0.97511665  0.79974508  0.45176167    -0.77500
O2710       O  0.92473714  0.81843335  0.46709095    -1.13600
O2711       O  0.97448137  0.85758755  0.43118241    -0.72800
C2712       C  0.98916625  0.88915503  0.44094226     0.97900
C2713       C  0.86064886  0.81317590  0.50007584     0.94300
Al2714     Al  0.90949691  0.78334646  0.48996967     1.55600
O2715       O  0.90444555  0.86316949  0.44242596    -0.77400
C2716       C  0.96769996  0.77429144  0.46712995     0.98500
C2717       C  0.96090225  0.84967963  0.51544175     0.93300
O2718       O  0.94953801  0.86845416  0.50352084    -0.82800
O2719       O  0.60646215  0.54122478  0.38084797    -0.82200
C2720       C  0.75725271  0.62327435  0.39345912     0.97100
O2721       O  0.72802482  0.60319232  0.40504870    -0.71300
O2722       O  0.66102404  0.58601805  0.41329525    -0.74900
Al2723     Al  0.68408326  0.56106987  0.39721548     1.49000
C2724       C  0.65337403  0.61127122  0.40718859     0.92400
O2725       O  0.66689215  0.62459765  0.33918773    -0.81100
O2726       O  0.68787802  0.57226187  0.32081441    -0.74700
Al2727     Al  0.64207447  0.58219623  0.36078877     1.90100
O2728       O  0.72524974  0.64113565  0.34418743    -0.73800
O2729       O  0.72128474  0.54944515  0.34931978    -0.73600
O2730       O  0.75913109  0.61840073  0.37141415    -0.79300
O2731       O  0.70878628  0.53384497  0.38692285    -0.77500
O2732       O  0.68224893  0.57885956  0.36868645    -1.13600
O2733       O  0.63891872  0.51594760  0.39344660    -0.72800
C2734       C  0.60836433  0.51527204  0.39173908     0.97900
C2735       C  0.70108687  0.64895956  0.33781950     0.94300
Al2736     Al  0.72011412  0.59398214  0.34811956     1.55600
O2737       O  0.65079614  0.61733848  0.38542564    -0.77400
C2738       C  0.72019873  0.52999864  0.36678471     0.98500
C2739       C  0.65291178  0.54984418  0.31926103     0.93300
O2740       O  0.63062771  0.54737249  0.33565422    -0.82800
O2741       O  0.59880678  0.01132858  0.63195849    -0.82200
C2742       C  0.64802695  0.90799839  0.61413040     0.97100
O2743       O  0.66050198  0.93964791  0.60429415    -0.71300
O2744       O  0.60145547  0.94097337  0.58859346    -0.74900
Al2745     Al  0.64464819  0.97528361  0.60655668     1.49000
C2746       C  0.56786555  0.93326043  0.59116082     0.92400
O2747       O  0.55249424  0.90803501  0.65027218    -0.81100
O2748       O  0.64722315  0.97881037  0.67861757    -0.74700
Al2749     Al  0.57925999  0.95974779  0.64087872     1.90100
O2750       O  0.59544924  0.90586005  0.67109489    -0.73800
O2751       O  0.69116249  0.97194057  0.64726322    -0.73600
O2752       O  0.63450696  0.90204936  0.63500637    -0.79300
O2753       O  0.69032830  0.01156102  0.62148039    -0.77500
O2754       O  0.62119863  0.95897958  0.63448597    -1.13600
O2755       O  0.63289775  0.50755972  0.59704508    -0.72800
C2756       C  0.62005791  0.52458176  0.60860943     0.97900
C2757       C  0.56229466  0.89081915  0.66441705     0.94300
Al2758     Al  0.64033614  0.94119620  0.65609991     1.55600
O2759       O  0.55751274  0.94238829  0.61000479    -0.77400
C2760       C  0.70724019  0.00337455  0.63697036     0.98500
C2761       C  0.62383568  0.98880348  0.68452667     0.93300
O2762       O  0.59400060  0.97785839  0.67281021    -0.82800
O2763       O  0.58576543  0.64117907  0.54890492    -0.82200
C2764       C  0.65068997  0.79422025  0.55620679     0.97100
O2765       O  0.64284307  0.76592337  0.56868800    -0.71300
O2766       O  0.59438551  0.69824060  0.57928941    -0.74900
Al2767     Al  0.64174752  0.72151698  0.56248083     1.49000
C2768       C  0.56132384  0.68890889  0.57323332     0.92400
O2769       O  0.55932296  0.69475908  0.50439838    -0.81100
O2770       O  0.63365319  0.71781998  0.48630293    -0.74700
Al2771     Al  0.57864692  0.67394003  0.52745525     1.90100
O2772       O  0.59883855  0.75461560  0.50619253    -0.73800
O2773       O  0.68928232  0.75736326  0.51415965    -0.73600
O2774       O  0.65478151  0.79367812  0.53391072    -0.79300
O2775       O  0.69317193  0.74704002  0.55182327    -0.77500
O2776       O  0.62117570  0.71637246  0.53398317    -1.13600
O2777       O  0.64326461  0.67670396  0.56017390    -0.72800
C2778       C  0.61423979  0.64505443  0.55951186     0.97900
C2779       C  0.56822529  0.72823326  0.49942936     0.94300
Al2780     Al  0.64228360  0.75267792  0.51204646     1.55600
O2781       O  0.55180964  0.68349514  0.55157524    -0.77400
C2782       C  0.70829734  0.75826853  0.53164743     0.98500
C2783       C  0.62215311  0.68268947  0.48617077     0.93300
O2784       O  0.60262709  0.66144920  0.50314162    -0.82800
C2785       C  0.59019639  0.56249751  0.60107466    -0.06200
C2786       C  0.62107410  0.55767531  0.59734119    -0.00300
C2787       C  0.64959169  0.58169369  0.58095348    -0.08800
C2788       C  0.64534632  0.60902360  0.56858759    -0.06200
C2789       C  0.61405449  0.61320037  0.57189696    -0.00300
C2790       C  0.58614852  0.59002325  0.58872746    -0.08700
C2791       C  0.55328232  0.59536092  0.59472441     0.61600
H2792       H  0.56867822  0.54382013  0.61346887     0.12300
H2793       H  0.66652132  0.62739284  0.55592549     0.12300
C2794       C  0.68473846  0.57936422  0.57645090     0.61900
F2795       F  0.53018185  0.57024391  0.61200035    -0.23300
F2796       F  0.53199656  0.58998729  0.57472416    -0.20600
F2797       F  0.56645337  0.63122072  0.60336792    -0.20300
F2798       F  0.69750197  0.07402209  0.59310218    -0.20400
F2799       F  0.70024875  0.57789407  0.59781058    -0.20700
F2800       F  0.71155901  0.61041774  0.56397359    -0.23400
C2801       C  0.63903945  0.87622289  0.57589211    -0.06200
C2802       C  0.64921195  0.87859065  0.59992755    -0.00300
C2803       C  0.66378737  0.85635732  0.60858238    -0.08800
C2804       C  0.66631060  0.83116974  0.59292814    -0.06200
C2805       C  0.65445386  0.82732933  0.56910301    -0.00300
C2806       C  0.64155761  0.85104723  0.56016807    -0.08700
C2807       C  0.62980080  0.84948214  0.53451690     0.61600
H2808       H  0.62879183  0.89433301  0.56953293     0.12300
H2809       H  0.67671899  0.81329064  0.59947573     0.12300
C2810       C  0.67720796  0.85967120  0.63398554     0.61900
F2811       F  0.61799681  0.87505229  0.52979673    -0.23300
F2812       F  0.60062541  0.81393944  0.52957928    -0.20600
F2813       F  0.65973696  0.85789402  0.51960389    -0.20300
F2814       F  0.64724650  0.84745871  0.64951565    -0.20400
F2815       F  0.70314414  0.89676836  0.63881812    -0.20700
F2816       F  0.69396239  0.83816950  0.63794947    -0.23400
C2817       C  0.66404297  0.63617043  0.44824985    -0.06200
C2818       C  0.64664236  0.63268336  0.42622647    -0.00300
C2819       C  0.62195569  0.64734438  0.42380921    -0.08800
C2820       C  0.61501672  0.66388957  0.44377838    -0.06200
C2821       C  0.63170443  0.66619041  0.46577774    -0.00300
C2822       C  0.65721176  0.65290781  0.46800144    -0.08700
C2823       C  0.67816593  0.65777771  0.49095757     0.61600
H2824       H  0.68330082  0.62563570  0.44991675     0.12300
H2825       H  0.59602746  0.67481541  0.44251111     0.12300
C2826       C  0.60220265  0.64497623  0.40063902     0.63100
F2827       F  0.70285002  0.64429961  0.48924557    -0.23300
F2828       F  0.65329111  0.63864963  0.50926585    -0.20600
F2829       F  0.69839090  0.69561071  0.49632598    -0.20300
F2830       F  0.58204666  0.60796238  0.39330528    -0.20400
F2831       F  0.62821717  0.66644855  0.38335958    -0.20700
F2832       F  0.57748622  0.65833187  0.40298581    -0.23400
C2833       C  0.99375679  0.90340523  0.54344337    -0.06200
C2834       C  0.98837152  0.86856958  0.53536751    -0.00300
C2835       C  0.01021190  0.85418698  0.54592127    -0.08800
C2836       C  0.03604264  0.87523398  0.56392929    -0.06200
C2837       C  0.54000097  0.91270769  0.57199757    -0.00300
C2838       C  0.51602970  0.92511076  0.56279405    -0.08700
C2839       C  0.51918399  0.96190129  0.57066269     0.61600
H2840       H  0.47177634  0.91328852  0.53812881     0.12300
H2841       H  0.05264139  0.86468685  0.57219259     0.12300
C2842       C  0.00728280  0.81728670  0.53824941     0.61900
F2843       F  0.49692002  0.97127934  0.55731788    -0.23300
F2844       F  0.55576691  0.99040192  0.56787628    -0.20600
F2845       F  0.50835470  0.95937794  0.59420963    -0.20300
F2846       F  0.01517932  0.81871933  0.51421186    -0.20400
F2847       F  0.97176432  0.78773889  0.54298718    -0.20700
F2848       F  0.03213107  0.80994644  0.55024543    -0.23400
C2849       C  0.53028693  0.91598014  0.40706301    -0.06200
C2850       C  0.52062181  0.92323574  0.42986695    -0.00300
C2851       C  0.54078597  0.96040637  0.43905566    -0.08800
C2852       C  0.56900377  0.98863802  0.42475351    -0.06200
C2853       C  0.57786256  0.98080962  0.40215761    -0.00300
C2854       C  0.56349359  0.48760995  0.42648530    -0.08700
C2855       C  0.58203416  0.52453597  0.43980365     0.61600
H2856       H  0.51521949  0.88784706  0.39987960     0.12300
H2857       H  0.58491671  0.01722738  0.43121402     0.12300
C2858       C  0.02241940  0.97215341  0.45621863     0.61900
F2859       F  0.56439258  0.52220051  0.46127430    -0.23300
F2860       F  0.58088468  0.55204222  0.42623864    -0.20600
F2861       F  0.61859798  0.53463919  0.44455084    -0.20300
F2862       F  0.02978510  0.95723073  0.47618415    -0.20400
F2863       F  0.98466467  0.96005827  0.45517242    -0.20700
F2864       F  0.04119711  0.01091714  0.45866120    -0.23400
C2865       C  0.77821518  0.67327356  0.42293968    -0.06200
C2866       C  0.78811026  0.65359948  0.40669406    -0.00300
C2867       C  0.82512846  0.66063813  0.40570317    -0.08800
C2868       C  0.85107331  0.68697469  0.42154063    -0.06200
C2869       C  0.84121826  0.70673741  0.43783672    -0.00300
C2870       C  0.80418522  0.70006971  0.43848029    -0.08700
C2871       C  0.79222899  0.72179677  0.45476243     0.61600
H2872       H  0.74955965  0.66738730  0.42329730     0.12300
H2873       H  0.87974837  0.69298746  0.42096807     0.12300
C2874       C  0.83697726  0.64015984  0.38838076     0.61900
F2875       F  0.75542352  0.71227899  0.45117979    -0.23300
F2876       F  0.81432415  0.76003699  0.45053494    -0.20600
F2877       F  0.79562638  0.71394856  0.47824151    -0.20300
F2878       F  0.83317139  0.64946899  0.36531856    -0.20400
F2879       F  0.81491538  0.60172009  0.39167657    -0.20700
F2880       F  0.87385793  0.64960909  0.39146684    -0.23400
C2881       C  0.52895139  0.78006422  0.46441725    -0.06200
C2882       C  0.99214530  0.75790890  0.47088818    -0.00300
C2883       C  0.97872723  0.72188828  0.48167464    -0.08800
C2884       C  0.00468030  0.71243656  0.49045709    -0.06200
C2885       C  0.54225185  0.73695437  0.48647780    -0.00300
C2886       C  0.55477154  0.76919256  0.47156121    -0.08700
C2887       C  0.59484325  0.79183763  0.46270604     0.61600
H2888       H  0.53865719  0.80640975  0.45494768     0.12300
H2889       H  0.99492583  0.68663864  0.50058154     0.12300
C2890       C  0.93739203  0.69319603  0.48428170     0.61900
F2891       F  0.59790088  0.81443532  0.44349369    -0.23300
F2892       F  0.60739741  0.76785585  0.45536897    -0.20600
F2893       F  0.61749770  0.81480434  0.48052166    -0.20300
F2894       F  0.91855448  0.69253100  0.46386712    -0.20400
F2895       F  0.92240952  0.70196540  0.50362812    -0.20700
F2896       F  0.93171058  0.65724842  0.48776044    -0.23400
C2897       C  0.76628154  0.80671166  0.51285263    -0.06200
C2898       C  0.74902162  0.77474639  0.52761033    -0.00300
C2899       C  0.76974532  0.75793216  0.53539614    -0.08800
C2900       C  0.80659345  0.77254867  0.52675937    -0.06200
C2901       C  0.82331836  0.80324259  0.51059359    -0.00300
C2902       C  0.80291754  0.82140755  0.50412247    -0.08700
C2903       C  0.81850739  0.85527077  0.48749132     0.61600
H2904       H  0.74995734  0.81945940  0.50746319     0.12300
H2905       H  0.82221922  0.75909199  0.53215033     0.12300
C2906       C  0.75271053  0.72402803  0.55198126     0.61900
F2907       F  0.79441752  0.86934439  0.48502220    -0.23300
F2908       F  0.82421166  0.84497278  0.46515682    -0.20600
F2909       F  0.85174413  0.88394138  0.49630261    -0.20300
F2910       F  0.72070614  0.69517289  0.54210189    -0.20400
F2911       F  0.74383097  0.73385552  0.57353994    -0.20700
F2912       F  0.77698217  0.71065474  0.55628788    -0.23400
C2913       C  0.01089141  0.69182167  0.63027216    -0.06200
C2914       C  0.97836762  0.65650175  0.62976357    -0.00300
C2915       C  0.97102884  0.63311429  0.60980241    -0.08800
C2916       C  0.99765711  0.64500797  0.59130948    -0.06200
C2917       C  0.53276336  0.68067543  0.59201109    -0.00300
C2918       C  0.53848430  0.70548045  0.61115883    -0.08700
C2919       C  0.57188743  0.74503899  0.61174119     0.61600
H2920       H  0.01541795  0.70967362  0.64552170     0.12300
H2921       H  0.99306783  0.62675924  0.57628080     0.12300
C2922       C  0.93557553  0.59545761  0.60849197     0.61900
F2923       F  0.56893005  0.76609802  0.62996173    -0.23300
F2924       F  0.57439917  0.76329299  0.59051376    -0.20600
F2925       F  0.60423461  0.74361480  0.61517542    -0.20300
F2926       F  0.90508386  0.60063638  0.61075073    -0.20400
F2927       F  0.93525365  0.57261380  0.62672404    -0.20700
F2928       F  0.93264552  0.57752202  0.58712749    -0.23400
C2929       C  0.49030403  0.78680621  0.66586024    -0.06200
C2930       C  0.99459103  0.77518428  0.68919340    -0.00300
C2931       C  0.01132382  0.80508498  0.70580767    -0.08800
C2932       C  0.03187740  0.84234414  0.69704991    -0.06200
C2933       C  0.53607961  0.85201977  0.67281799    -0.00300
C2934       C  0.51089639  0.82386913  0.65729667    -0.08700
C2935       C  0.50713348  0.83222076  0.63136475     0.61600
H2936       H  0.47044877  0.76560513  0.65403286     0.12300
H2937       H  0.04602003  0.86559096  0.70925044     0.12300
C2938       C  0.00722422  0.79836465  0.73246740     0.61900
F2939       F  0.49224381  0.85578813  0.63004326    -0.23300
F2940       F  0.48394219  0.79987928  0.61884640    -0.20600
F2941       F  0.54181217  0.84918069  0.62029853    -0.20300
F2942       F  0.02174874  0.77581399  0.73912075    -0.20400
F2943       F  0.96988595  0.78118935  0.73873657    -0.20700
F2944       F  0.02584474  0.83160814  0.74507608    -0.23400
C2945       C  0.79446347  0.58482273  0.65733429    -0.06200
C2946       C  0.81880481  0.56999374  0.65858115    -0.00300
C2947       C  0.80896608  0.03939109  0.64993540    -0.08800
C2948       C  0.77296769  0.01968464  0.63990330    -0.06200
C2949       C  0.74620928  0.52807111  0.63939796    -0.00300
C2950       C  0.75802077  0.56419829  0.64876068    -0.08700
C2951       C  0.73365528  0.58214876  0.65164758     0.61600
H2952       H  0.80318373  0.61264256  0.66422530     0.12300
H2953       H  0.76525793  0.99511571  0.62907650     0.12300
C2954       C  0.83660910  0.02594274  0.64515739     0.61900
F2955       F  0.73488988  0.59315182  0.67502593    -0.23300
F2956       F  0.69661270  0.55867284  0.64616439    -0.20600
F2957       F  0.74764326  0.61375921  0.63722498    -0.20300
F2958       F  0.84597264  0.01565436  0.66634902    -0.20400
F2959       F  0.86313269  0.53756484  0.63581254    -0.20700
F2960       F  0.82195599  0.99493820  0.63037789    -0.23400
C2961       C  0.66621666  0.54965653  0.73912744    -0.06200
C2962       C  0.64354715  0.56600271  0.74118096    -0.00300
C2963       C  0.61382271  0.55538788  0.72507890    -0.08800
C2964       C  0.60905417  0.53029568  0.70659205    -0.06200
C2965       C  0.63190800  0.01585146  0.70434880    -0.00300
C2966       C  0.64668276  0.01370841  0.72661020    -0.08700
C2967       C  0.65591450  0.98297191  0.73190681     0.61600
H2968       H  0.68848993  0.55788959  0.75186118     0.12300
H2969       H  0.58684686  0.52306717  0.69398009     0.12300
C2970       C  0.58652283  0.56976492  0.72780964     0.61900
F2971       F  0.66538680  0.98310626  0.75548871    -0.23300
F2972       F  0.68587332  0.98827289  0.71797533    -0.20600
F2973       F  0.62536751  0.94810469  0.72713715    -0.20300
F2974       F  0.60458510  0.60807257  0.72355263    -0.20400
F2975       F  0.57183985  0.56234684  0.75062707    -0.20700
F2976       F  0.55707717  0.55264826  0.71211485    -0.23400
C2977       C  0.59056646  0.67197350  0.74247084    -0.06200
C2978       C  0.58210847  0.65042727  0.76353685    -0.00300
C2979       C  0.54422074  0.62627315  0.77017873    -0.08800
C2980       C  0.01647290  0.61263906  0.74687167    -0.06200
C2981       C  0.52500937  0.64497878  0.73391357    -0.00300
C2982       C  0.56252014  0.66969528  0.72749533    -0.08700
C2983       C  0.57269180  0.69236508  0.70450713     0.61600
H2984       H  0.61953069  0.68998848  0.73738137     0.12300
H2985       H  0.98857003  0.58844853  0.74641738     0.12300
C2986       C  0.53301213  0.60445386  0.79352907     0.61900
F2987       F  0.61095591  0.71300215  0.70090537    -0.23300
F2988       F  0.55932830  0.71725220  0.70496350    -0.20600
F2989       F  0.55710681  0.66823549  0.68550681    -0.20300
F2990       F  0.49524739  0.58914301  0.79833739    -0.20400
F2991       F  0.55246673  0.62817919  0.81206552    -0.20700
F2992       F  0.05287799  0.56010652  0.76825313    -0.23400
C2993       C  0.82422981  0.69529495  0.77221009    -0.06200
C2994       C  0.79349478  0.68990994  0.75879084    -0.00300
C2995       C  0.79503446  0.68769076  0.73346737    -0.08800
C2996       C  0.82554773  0.68683254  0.72315864    -0.06200
C2997       C  0.85448199  0.68865621  0.73687920    -0.00300
C2998       C  0.85503307  0.69516414  0.76175604    -0.08700
C2999       C  0.88703130  0.70097173  0.77772074     0.61600
H3000       H  0.82338151  0.69799251  0.79131680     0.12300
H3001       H  0.82601805  0.68269772  0.70418065     0.12300
C3002       C  0.76491531  0.68546271  0.71692193     0.61900
F3003       F  0.88584366  0.71640699  0.79936577    -0.23300
F3004       F  0.92093318  0.72536720  0.76710558    -0.20600
F3005       F  0.88493904  0.66680703  0.78214534    -0.20300
F3006       F  0.75751378  0.71411777  0.72197663    -0.20400
F3007       F  0.73272997  0.65087622  0.71943470    -0.20700
F3008       F  0.77576435  0.68938558  0.69324368    -0.23400
C3009       C  0.82564585  0.94971439  0.09428876    -0.06200
C3010       C  0.85979457  0.97826523  0.10337472    -0.00300
C3011       C  0.89306151  0.97753328  0.09781983    -0.08800
C3012       C  0.89054301  0.94869185  0.08295998    -0.06200
C3013       C  0.85640597  0.92107954  0.07332376    -0.00300
C3014       C  0.82330618  0.92179881  0.07895883    -0.08700
C3015       C  0.78546219  0.89400533  0.06860785     0.61600
H3016       H  0.80017190  0.94964394  0.09889578     0.12300
H3017       H  0.91546213  0.94729305  0.07889462     0.12300
C3018       C  0.92676987  0.49518924  0.11569741     0.61900
F3019       F  0.75943303  0.90546093  0.07210486    -0.23300
F3020       F  0.77181690  0.85920801  0.07942789    -0.20600
F3021       F  0.78876315  0.89077045  0.04434241    -0.20300
F3022       F  0.91785699  0.49477959  0.13949754    -0.20400
F3023       F  0.94502833  0.53178790  0.10718072    -0.20700
F3024       F  0.95127311  0.48146515  0.11401928    -0.23400
C3025       C  0.81749361  0.68010603  0.05739851    -0.06200
C3026       C  0.81532319  0.70750804  0.07097065    -0.00300
C3027       C  0.80814940  0.70144910  0.09590580    -0.08800
C3028       C  0.80703622  0.66986570  0.10642233    -0.06200
C3029       C  0.81301740  0.64442832  0.09323215    -0.00300
C3030       C  0.81615781  0.64834430  0.06792869    -0.08700
C3031       C  0.81837725  0.61983851  0.05168933     0.61600
H3032       H  0.82206860  0.68466209  0.03840647     0.12300
H3033       H  0.80315643  0.66583502  0.12544850     0.12300
C3034       C  0.80210818  0.72797258  0.11183373     0.61900
F3035       F  0.81369178  0.62589009  0.02803295    -0.23300
F3036       F  0.79043109  0.58383167  0.05759875    -0.20600
F3037       F  0.85294338  0.62244607  0.05365901    -0.20300
F3038       F  0.77633498  0.73588118  0.10172780    -0.20400
F3039       F  0.83558516  0.76094305  0.11513105    -0.20700
F3040       F  0.78850043  0.71240174  0.13408372    -0.23400
C3041       C  0.48709806  0.85421632  0.11818938    -0.06200
C3042       C  0.48706214  0.87714243  0.13686860    -0.00300
C3043       C  0.96640529  0.89618510  0.13047692    -0.08800
C3044       C  0.94186398  0.88575930  0.11111674    -0.06200
C3045       C  0.93992252  0.86041475  0.09384209    -0.00300
C3046       C  0.96335682  0.84455163  0.09562046    -0.08700
C3047       C  0.96171799  0.81650284  0.07738921     0.61600
H3048       H  0.50623473  0.84346985  0.11912489     0.12300
H3049       H  0.92362550  0.89749131  0.10918807     0.12300
C3050       C  0.96677469  0.92478373  0.14789298     0.61900
F3051       F  0.48892067  0.80704943  0.08448957    -0.23300
F3052       F  0.97369860  0.83401072  0.05547945    -0.20600
F3053       F  0.42959710  0.78912709  0.07566912    -0.20300
F3054       F  0.00261965  0.95507545  0.14975193    -0.20400
F3055       F  0.44904197  0.89984336  0.17558608    -0.20700
F3056       F  0.94406054  0.93879367  0.14064485    -0.23400
C3057       C  0.44540944  0.68847413  0.19375435    -0.06200
C3058       C  0.92304741  0.68633619  0.17349233    -0.00300
C3059       C  0.91867721  0.71751377  0.16676482    -0.08800
C3060       C  0.94154176  0.75246126  0.17738096    -0.06200
C3061       C  0.46592812  0.75498985  0.19715720    -0.00300
C3062       C  0.46770194  0.72322007  0.20513226    -0.08700
C3063       C  0.49373534  0.72640337  0.22499936     0.61600
H3064       H  0.44647168  0.66377299  0.19944196     0.12300
H3065       H  0.94001785  0.77696541  0.17176827     0.12300
C3066       C  0.89088929  0.71493484  0.14815524     0.61900
F3067       F  0.49138175  0.69218908  0.22996622    -0.23300
F3068       F  0.48441939  0.73864710  0.24544617    -0.20600
F3069       F  0.53026065  0.75184092  0.21866802    -0.20300
F3070       F  0.85491710  0.69301852  0.15682473    -0.20400
F3071       F  0.89547381  0.69951811  0.12748024    -0.20700
F3072       F  0.89543667  0.74985865  0.14239475    -0.23400
C3073       C  0.66872145  0.94009086  0.15141730    -0.06200
C3074       C  0.64905903  0.95720744  0.16084842    -0.00300
C3075       C  0.67297339  0.50056896  0.16340832    -0.08800
C3076       C  0.70879951  0.52115301  0.15330417    -0.06200
C3077       C  0.72528664  0.50373926  0.14059092    -0.00300
C3078       C  0.70493926  0.46472532  0.13645016    -0.08700
C3079       C  0.72677816  0.94206923  0.13449924     0.61600
H3080       H  0.65573775  0.90974009  0.15193148     0.12300
H3081       H  0.72544733  0.55112781  0.15647122     0.12300
C3082       C  0.65933096  0.52054560  0.17993215     0.61900
F3083       F  0.70578613  0.90333729  0.13702811    -0.23300
F3084       F  0.75858463  0.95470858  0.14808885    -0.20600
F3085       F  0.73336260  0.45898916  0.10113775    -0.20300
F3086       F  0.65194311  0.50380200  0.20215259    -0.20400
F3087       F  0.62746509  0.51883231  0.17095768    -0.20700
F3088       F  0.68571085  0.55816635  0.18274224    -0.23400
C3089       C  0.63558134  0.48962388  0.29977289    -0.06200
C3090       C  0.63797094  0.52483047  0.29843682    -0.00300
C3091       C  0.62540700  0.53478390  0.27784768    -0.08800
C3092       C  0.60827562  0.50779249  0.25975087    -0.06200
C3093       C  0.60092204  0.96694022  0.26419103    -0.00300
C3094       C  0.61236983  0.95737755  0.28568466    -0.08700
C3095       C  0.60698626  0.91849832  0.29018014     0.61600
H3096       H  0.64670537  0.48328939  0.31530578     0.12300
H3097       H  0.59750828  0.51461672  0.24416983     0.12300
C3098       C  0.63004535  0.57369740  0.27528267     0.61900
F3099       F  0.62505350  0.91727458  0.31052974    -0.23300
F3100       F  0.62178522  0.90881173  0.27122567    -0.20600
F3101       F  0.56950170  0.89242717  0.29293765    -0.20300
F3102       F  0.66741305  0.60054861  0.27718661    -0.20400
F3103       F  0.61004952  0.57930254  0.29303279    -0.20700
F3104       F  0.61749614  0.57853905  0.25351556    -0.23400
C3105       C  0.84674111  0.84166257  0.36504257    -0.06200
C3106       C  0.83284180  0.86572319  0.37034067    -0.00300
C3107       C  0.83622836  0.87965665  0.39362782    -0.08800
C3108       C  0.85611046  0.87124345  0.41061133    -0.06200
C3109       C  0.87101662  0.84760970  0.40542514    -0.00300
C3110       C  0.86504868  0.83150635  0.38218796    -0.08700
C3111       C  0.87795357  0.80404854  0.37494664     0.61600
H3112       H  0.84321420  0.83102287  0.34711585     0.12300
H3113       H  0.85999134  0.88314971  0.42815439     0.12300
C3114       C  0.81796289  0.90250288  0.40046857     0.61900
F3115       F  0.86925706  0.79261348  0.35157076    -0.23300
F3116       F  0.86050318  0.77209952  0.38910824    -0.20600
F3117       F  0.91629902  0.82088397  0.37714731    -0.20300
F3118       F  0.77991875  0.88133051  0.39661788    -0.20400
F3119       F  0.85567099  0.44716154  0.37957154    -0.20700
F3120       F  0.82340450  0.91266952  0.42418646    -0.23400
C3121       C  0.86286009  0.49523746  0.23647133    -0.06200
C3122       C  0.82245350  0.96866108  0.24104057    -0.00300
C3123       C  0.79729918  0.47329387  0.22870485    -0.08800
C3124       C  0.80852671  0.50183515  0.21130754    -0.06200
C3125       C  0.84630271  0.52600741  0.20566942    -0.00300
C3126       C  0.87406757  0.52353120  0.21890589    -0.08700
C3127       C  0.91532832  0.55094413  0.21473047     0.61600
H3128       H  0.87954931  0.00199814  0.25215848     0.12300
H3129       H  0.78768162  0.50417801  0.20101554     0.12300
C3130       C  0.75606653  0.44713966  0.23336363     0.61900
F3131       F  0.93714916  0.54792856  0.23221545    -0.23300
F3132       F  0.92177244  0.58746273  0.21486013    -0.20600
F3133       F  0.92650851  0.54387659  0.19306739    -0.20300
F3134       F  0.74859226  0.44389371  0.25754653    -0.20400
F3135       F  0.75567626  0.90152603  0.21732988    -0.20700
F3136       F  0.73429415  0.45991614  0.22271925    -0.23400
C3137       C  0.92353953  0.92414535  0.26029017    -0.06200
C3138       C  0.89377105  0.88929957  0.26746915    -0.00300
C3139       C  0.89292433  0.85570312  0.26094106    -0.08800
C3140       C  0.92215994  0.85820414  0.24691262    -0.06200
C3141       C  0.95212736  0.89305496  0.23921612    -0.00300
C3142       C  0.95289503  0.92688859  0.24604818    -0.08700
C3143       C  0.98393537  0.96574353  0.23852886     0.61600
H3144       H  0.92271831  0.94925496  0.26522799     0.12300
H3145       H  0.92148066  0.83247410  0.24170353     0.12300
C3146       C  0.86140207  0.81735815  0.26886135     0.61900
F3147       F  0.97833195  0.99409808  0.24728758    -0.23300
F3148       F  0.98540135  0.96868486  0.21398814    -0.20600
F3149       F  0.01779206  0.97178871  0.24706889    -0.20300
F3150       F  0.82891315  0.80921416  0.25720969    -0.20400
F3151       F  0.85578557  0.81728179  0.29314859    -0.20700
F3152       F  0.86922938  0.78893842  0.26387861    -0.23400
C3153       C  0.61283628  0.83448354  0.26499295    -0.06200
C3154       C  0.61611384  0.83801547  0.23995165    -0.00300
C3155       C  0.64793014  0.84033985  0.22874610    -0.08800
C3156       C  0.67651271  0.84251459  0.24321181    -0.06200
C3157       C  0.67539688  0.84441934  0.26825341    -0.00300
C3158       C  0.64237589  0.83901237  0.27943710    -0.08700
C3159       C  0.63812902  0.83835298  0.30631860     0.61600
H3160       H  0.58755834  0.83070199  0.27343376     0.12300
H3161       H  0.70103704  0.84453727  0.23481669     0.12300
C3162       C  0.65285585  0.84220782  0.20189656     0.61900
F3163       F  0.60217361  0.82857965  0.31323714    -0.23300
F3164       F  0.66207454  0.87365341  0.31534954    -0.20600
F3165       F  0.64624308  0.81232261  0.31614913    -0.20300
F3166       F  0.65438598  0.87451464  0.19325788    -0.20400
F3167       F  0.62336454  0.81092062  0.19168223    -0.20700
F3168       F  0.68546877  0.84301097  0.19499321    -0.23400
C3169       C  0.69989219  0.69108898  0.30673373    -0.06200
C3170       C  0.71384187  0.68700051  0.32855481    -0.00300
C3171       C  0.74155314  0.71917898  0.34058012    -0.08800
C3172       C  0.75470135  0.75452488  0.33002495    -0.06200
C3173       C  0.74117164  0.75856093  0.30816498    -0.00300
C3174       C  0.71334384  0.72677771  0.29622460    -0.08700
C3175       C  0.69809042  0.73097202  0.27268055     0.61600
H3176       H  0.67881464  0.66611418  0.29786411     0.12300
H3177       H  0.77527408  0.77966286  0.33905723     0.12300
C3178       C  0.75676855  0.71661871  0.36468224     0.61900
F3179       F  0.67104131  0.69657757  0.26394688    -0.23300
F3180       F  0.72687441  0.74731606  0.25617311    -0.20600
F3181       F  0.68231669  0.75361306  0.27543039    -0.20300
F3182       F  0.78083371  0.70262899  0.36186970    -0.20400
F3183       F  0.72780770  0.69330475  0.37985491    -0.20700
F3184       F  0.77634293  0.75148227  0.37540278    -0.23400
C3185       C  0.77224940  0.52036033  0.35619285    -0.06200
C3186       C  0.73453416  0.50406381  0.36282670    -0.00300
C3187       C  0.73442849  0.97741426  0.37497539    -0.08800
C3188       C  0.74923466  0.95587267  0.36527545    -0.06200
C3189       C  0.76289516  0.45976748  0.34333628    -0.00300
C3190       C  0.78715798  0.49895641  0.34664280    -0.08700
C3191       C  0.82846862  0.51849325  0.34023539     0.61600
H3192       H  0.78968095  0.55061188  0.35759067     0.12300
H3193       H  0.74099561  0.92851317  0.37288210     0.12300
C3194       C  0.70717731  0.96223306  0.39572347     0.61900
F3195       F  0.84729901  0.55538316  0.34800698    -0.23300
F3196       F  0.83296205  0.51902611  0.31582087    -0.20600
F3197       F  0.84480409  0.49981847  0.35079099    -0.20300
F3198       F  0.67335806  0.95855965  0.38913486    -0.20400
F3199       F  0.72136814  0.98668186  0.41468342    -0.20700
F3200       F  0.70081537  0.92731579  0.40323108    -0.23400
C3201       C  0.83554505  0.49870629  0.77785590    -0.06200
C3202       C  0.83713141  0.01725464  0.80169649    -0.00300
C3203       C  0.83763373  0.05199333  0.79915163    -0.08800
C3204       C  0.87651470  0.57656030  0.78290356    -0.06200
C3205       C  0.87478756  0.56127962  0.76024231    -0.00300
C3206       C  0.85300750  0.52136215  0.75758091    -0.08700
C3207       C  0.84818593  0.50221271  0.73376785     0.61600
H3208       H  0.81968090  0.46834427  0.77638951     0.12300
H3209       H  0.89237129  0.60677339  0.78497811     0.12300
C3210       C  0.81608166  0.06323627  0.81596261     0.61900
F3211       F  0.82755266  0.46337127  0.73571635    -0.23300
F3212       F  0.88272545  0.51151083  0.72427293    -0.20600
F3213       F  0.82945141  0.51342133  0.71849527    -0.20300
F3214       F  0.82513255  0.06071450  0.83927178    -0.20400
F3215       F  0.77831075  0.03965372  0.81267678    -0.20700
F3216       F  0.82379677  0.09975898  0.81189805    -0.23400
C3217       C  0.74697248  0.56287872  0.86894093    -0.06200
C3218       C  0.73297943  0.52762350  0.85815563    -0.00300
C3219       C  0.70375118  0.01616342  0.84011716    -0.08800
C3220       C  0.69414379  0.54251230  0.83293997    -0.06200
C3221       C  0.71008704  0.57844784  0.84251425    -0.00300
C3222       C  0.73652083  0.58896551  0.86106556    -0.08700
C3223       C  0.75380324  0.62757369  0.87237693     0.61600
H3224       H  0.76781053  0.57070052  0.88265524     0.12300
H3225       H  0.67427111  0.53551274  0.81867104     0.12300
C3226       C  0.68554121  0.97866674  0.82694400     0.61900
F3227       F  0.77429640  0.62989248  0.89232334    -0.23300
F3228       F  0.72601332  0.63513249  0.87923639    -0.20600
F3229       F  0.77755367  0.65469551  0.85630901    -0.20300
F3230       F  0.66588164  0.94936044  0.84270296    -0.20400
F3231       F  0.71232865  0.97395240  0.81517296    -0.20700
F3232       F  0.66040189  0.97642408  0.80994587    -0.23400
C3233       C  0.79141992  0.84147452  0.82135125    -0.06200
C3234       C  0.76629866  0.85509927  0.82170955    -0.00300
C3235       C  0.73113973  0.83414251  0.80989922    -0.08800
C3236       C  0.72212236  0.79950718  0.79955612    -0.06200
C3237       C  0.74590722  0.78478154  0.80132025    -0.00300
C3238       C  0.78174087  0.80646873  0.81139548    -0.08700
C3239       C  0.80906109  0.79194668  0.81267475     0.61600
H3240       H  0.81826524  0.85771453  0.82984464     0.12300
H3241       H  0.69492064  0.78192682  0.79177131     0.12300
C3242       C  0.70166238  0.84609412  0.80935189     0.61900
F3243       F  0.84497619  0.82069015  0.81720439    -0.23300
F3244       F  0.80979414  0.77569552  0.79129702    -0.20600
F3245       F  0.79847950  0.76552124  0.83070804    -0.20300
F3246       F  0.71507545  0.87966577  0.79701390    -0.20400
F3247       F  0.69197605  0.84991589  0.83230639    -0.20700
F3248       F  0.66927092  0.81987538  0.79819748    -0.23400
C3249       C  0.82109496  0.87423997  0.92728164    -0.06200
C3250       C  0.81987073  0.90708127  0.93277231    -0.00300
C3251       C  0.82818150  0.92123490  0.95628291    -0.08800
C3252       C  0.83853727  0.90263500  0.97309924    -0.06200
C3253       C  0.84061972  0.87021173  0.96759089    -0.00300
C3254       C  0.83077652  0.85513381  0.94427749    -0.08700
C3255       C  0.83103842  0.81960695  0.93697139     0.61600
H3256       H  0.81438204  0.86362236  0.90931560     0.12300
H3257       H  0.84495199  0.91341959  0.99103255     0.12300
C3258       C  0.82724530  0.95642151  0.96365559     0.61900
F3259       F  0.82330901  0.81181308  0.91306662    -0.23300
F3260       F  0.80415405  0.78913169  0.94976276    -0.20600
F3261       F  0.86582004  0.82370105  0.94112686    -0.20300
F3262       F  0.79107522  0.94988725  0.96240895    -0.20400
F3263       F  0.85020224  0.98620047  0.94885281    -0.20700
F3264       F  0.83938407  0.96690403  0.98673631    -0.23400
C3265       C  0.94550571  0.60004865  0.05856713    -0.06200
C3266       C  0.93977721  0.62269923  0.07467660    -0.00300
C3267       C  0.45811982  0.66312123  0.07151389    -0.08800
C3268       C  0.48487520  0.67831877  0.05297986    -0.06200
C3269       C  0.49037615  0.65537256  0.03670937    -0.00300
C3270       C  0.97083357  0.61536273  0.03930623    -0.08700
C3271       C  0.97560749  0.58844805  0.02299870     0.61600
H3272       H  0.92968030  0.56985335  0.06128470     0.12300
H3273       H  0.50064104  0.70853744  0.05049926     0.12300
C3274       C  0.44962454  0.68881006  0.08640339     0.61900
F3275       F  0.95610403  0.55165019  0.03122790    -0.23300
F3276       F  0.01292210  0.59861991  0.02156489    -0.20600
F3277       F  0.96231913  0.58905728  0.00058788    -0.20300
F3278       F  0.45898676  0.68790122  0.10984665    -0.20400
F3279       F  0.41192515  0.67695312  0.08500428    -0.20700
F3280       F  0.46928838  0.72578054  0.07855059    -0.23400
C3281       C  0.63312736  0.64747662  0.88887326    -0.06200
C3282       C  0.64118077  0.66963268  0.86834342    -0.00300
C3283       C  0.63212800  0.69868486  0.86768392    -0.08800
C3284       C  0.61390526  0.70367224  0.88747550    -0.06200
C3285       C  0.60482014  0.68089309  0.90798821    -0.00300
C3286       C  0.61512204  0.65249011  0.90881427    -0.08700
C3287       C  0.60608400  0.62645637  0.93013192     0.61600
H3288       H  0.64043191  0.62551447  0.88890100     0.12300
H3289       H  0.60653635  0.72557358  0.88704090     0.12300
C3290       C  0.64233348  0.72467770  0.84626613     0.61900
F3291       F  0.61523438  0.59873246  0.92605741    -0.23300
F3292       F  0.56823982  0.60882698  0.93518592    -0.20600
F3293       F  0.62614181  0.64689119  0.94961204    -0.20300
F3294       F  0.62462404  0.70417033  0.82624238    -0.20400
F3295       F  0.68050869  0.74283514  0.84267546    -0.20700
F3296       F  0.63215569  0.75186032  0.84937552    -0.23400
C3297       C  0.88963376  0.57877892  0.91969876    -0.06200
C3298       C  0.89732034  0.55853613  0.90258064    -0.00300
C3299       C  0.93491096  0.56699229  0.89904043    -0.08800
C3300       C  0.96302296  0.59523600  0.91297834    -0.06200
C3301       C  0.95498621  0.61493908  0.93013080    -0.00300
C3302       C  0.91773626  0.60658171  0.93373348    -0.08700
C3303       C  0.90734868  0.62538794  0.95315581     0.61600
H3304       H  0.86097767  0.57184335  0.92263658     0.12300
H3305       H  0.48815572  0.59031703  0.92018803     0.12300
C3306       C  0.94595567  0.54667372  0.88094800     0.61900
F3307       F  0.86905790  0.60983798  0.95549978    -0.23300
F3308       F  0.92238706  0.66323380  0.94805696    -0.20600
F3309       F  0.92082625  0.62094893  0.97463687    -0.20300
F3310       F  0.93091202  0.54636014  0.85901930    -0.20400
F3311       F  0.89979300  0.98429219  0.91439368    -0.20700
F3312       F  0.48128612  0.54274455  0.89507450    -0.23400
C3313       C  0.62016002  0.84292608  0.91994992    -0.06200
C3314       C  0.63073903  0.82603434  0.93768450    -0.00300
C3315       C  0.66833418  0.83472441  0.93929275    -0.08800
C3316       C  0.69440753  0.86049273  0.92291825    -0.06200
C3317       C  0.68353662  0.87653886  0.90483962    -0.00300
C3318       C  0.64617363  0.86834337  0.90345066    -0.08700
C3319       C  0.63422419  0.88667450  0.88472719     0.61600
H3320       H  0.59096368  0.83490934  0.91863621     0.12300
H3321       H  0.72356267  0.86825662  0.92399793     0.12300
C3322       C  0.68040749  0.81581986  0.95763729     0.61900
F3323       F  0.59629487  0.87401835  0.88589822    -0.23300
F3324       F  0.64239040  0.87857129  0.86237610    -0.20600
F3325       F  0.65318647  0.92520709  0.88801774    -0.20300
F3326       F  0.66077038  0.77722926  0.95455470    -0.20400
F3327       F  0.67343151  0.82428044  0.98020250    -0.20700
F3328       F  0.71813998  0.82772553  0.95578183    -0.23400
C3329       C  0.98394137  0.80050130  0.96903557    -0.06200
C3330       C  0.97706746  0.76499085  0.97683752    -0.00300
C3331       C  0.94739322  0.74396805  0.99302211    -0.08800
C3332       C  0.92663901  0.75982682  0.00156294    -0.06200
C3333       C  0.93352561  0.79557861  0.99433596    -0.00300
C3334       C  0.96264874  0.81643313  0.97761145    -0.08700
C3335       C  0.97159875  0.85517466  0.96903333     0.61600
H3336       H  0.00735021  0.81644046  0.95708877     0.12300
H3337       H  0.90452058  0.74364910  0.01435803     0.12300
C3338       C  0.93594980  0.70470776  0.00215922     0.61900
F3339       F  0.99896327  0.86897495  0.95148265    -0.23300
F3340       F  0.98435941  0.88008058  0.98782173    -0.20600
F3341       F  0.93996340  0.85358488  0.95971221    -0.20300
F3342       F  0.43857242  0.70231876  0.02803025    -0.20400
F3343       F  0.95620891  0.68967000  0.99228328    -0.20700
F3344       F  0.89870194  0.68073971  0.99704381    -0.23400
C3345       C  0.70401000  0.77036382  0.03948597    -0.06200
C3346       C  0.72493701  0.75581432  0.02908865    -0.00300
C3347       C  0.70693580  0.72431190  0.01365800    -0.08800
C3348       C  0.67051396  0.71279709  0.00604867    -0.06200
C3349       C  0.65110324  0.73033272  0.01431463    -0.00300
C3350       C  0.66673842  0.75729537  0.03282119    -0.08700
C3351       C  0.64400040  0.77136958  0.04604214     0.61600
H3352       H  0.71747663  0.79312433  0.05210302     0.12300
H3353       H  0.65757475  0.69104389  0.99274019     0.12300
C3354       C  0.72538599  0.70206591  0.00563738     0.61900
F3355       F  0.66123504  0.78930990  0.06691551    -0.23300
F3356       F  0.60930332  0.74128748  0.05198781    -0.20600
F3357       F  0.63957425  0.79661953  0.03209161    -0.20300
F3358       F  0.74104440  0.69436421  0.02497730    -0.20400
F3359       F  0.75262913  0.72206815  0.98871575    -0.20700
F3360       F  0.69979935  0.66798103  0.99572193    -0.23400
loop_ 
_geom_bond_atom_site_label_1 
_geom_bond_atom_site_label_2 
_geom_bond_distance 
_geom_bond_site_symmetry_2 
_ccdc_geom_bond_type 
O1           Al9   1.950       .  S
O1         C1696   1.269   1_455  A
C2           O12   1.270       .  A
C2            O3   1.252       .  A
C2          C794   1.474       .  S
O3           Al5   1.851       .  S
O4           Al5   1.942       .  S
O4            C6   1.270       .  A
Al5          O13   1.940       .  S
Al5        O1695   1.872   1_455  S
Al5          O14   1.784       .  S
C6           O19   1.262       .  A
C6          C765   1.484       .  S
O7           Al9   1.949       .  S
O7           C17   1.267   1_556  A
O8          Al18   1.951   1_554  S
O8           C21   1.273       .  A
Al9          O22   1.881       .  S
Al9          O19   1.894       .  S
Al9          O14   1.785       .  S
O10         Al18   1.865       .  S
O10          C17   1.251   1_556  A
O11         Al18   1.857       .  S
O11          C20   1.251       .  A
O12         Al18   1.951       .  S
O13          C20   1.264       .  A
O14         Al18   1.784       .  S
O15       Al1685   1.874       .  S
O15          C16   1.252       .  A
C16        O1681   1.267       .  A
C16         C781   1.490       .  S
C17         C829   1.485       .  S
C20        C2490   1.473   1_455  S
C21          O22   1.258   1_554  A
C21         C749   1.503   1_455  S
O23         Al31   1.917       .  S
O23         C878   1.259       .  A
C24          O34   1.270       .  A
C24          O25   1.253       .  A
C24         C797   1.485       .  S
O25         Al27   1.851       .  S
O26         Al27   1.942       .  S
O26          C28   1.272       .  A
Al27         O35   1.953       .  S
Al27        O877   1.899       .  S
Al27         O36   1.779       .  S
C28          O41   1.271       .  A
C28         C730   1.496       .  S
O29         Al31   1.940       .  S
O29          C39   1.261       .  A
O30         Al40   1.964       .  S
O30          C43   1.277       .  A
Al31         O44   1.880       .  S
Al31         O41   1.907       .  S
Al31         O36   1.785       .  S
O32         Al40   1.861       .  S
O32          C39   1.245       .  A
O33         Al40   1.841       .  S
O33          C42   1.243       .  A
O34         Al40   1.952       .  S
O35          C42   1.267       .  A
O36         Al40   1.769       .  S
O37        Al867   1.888   1_545  S
O37          C38   1.262       .  A
C38         O863   1.262   1_545  A
C38         C778   1.493       .  S
C39         C714   1.481       .  S
C42        C1538   1.490       .  S
C43          O44   1.263       .  A
C43         C682   1.490       .  S
O45         Al53   1.899       .  S
O45          C60   1.257       .  A
C46          O56   1.265       .  A
C46          O47   1.260       .  A
C46         C637   1.484       .  S
O47         Al49   1.895       .  S
O48         Al49   1.911       .  S
O48          C50   1.266       .  A
Al49         O57   1.918       .  S
Al49         O59   1.875       .  S
Al49         O58   1.782       .  S
C50          O63   1.264       .  A
C50         C602   1.481       .  S
O51         Al53   1.896       .  S
O51          C61   1.255       .  A
O52         Al62   1.898       .  S
O52          C65   1.263       .  A
Al53         O66   1.920       .  S
Al53         O63   1.912       .  S
Al53         O58   1.784       .  S
O54         Al62   1.892       .  S
O54          C61   1.254       .  A
O55         Al62   1.885       .  S
O55          C64   1.254       .  A
O56         Al62   1.905       .  S
O57          C64   1.263       .  A
O58         Al62   1.784       .  S
O59          C60   1.252       .  A
C60         C618   1.461       .  S
C61        C1509   1.492       .  S
C64         C653   1.463       .  S
C65          O66   1.266       .  A
C65         C586   1.476       .  S
O67         Al75   1.922       .  S
O67        C1762   1.259   1_455  A
C68          O78   1.267       .  A
C68          O69   1.251       .  A
C68         C634   1.489       .  S
O69         Al71   1.835       .  S
O70         Al71   1.946       .  S
O70          C72   1.271       .  A
Al71         O79   1.941       .  S
Al71         O81   1.871   1_455  S
Al71         O80   1.778       .  S
C72          O85   1.267       .  A
C72         C573   1.495       .  S
O73         Al75   1.929       .  S
O73          C83   1.260       .  A
O74         Al84   1.952       .  S
O74          C87   1.274       .  A
Al75         O88   1.897       .  S
Al75         O85   1.908       .  S
Al75         O80   1.784       .  S
O76         Al84   1.862       .  S
O76          C83   1.251       .  A
O77         Al84   1.850       .  S
O77          C86   1.249   1_455  A
O78         Al84   1.946       .  S
O79          C86   1.264   1_455  A
O80         Al84   1.780       .  S
O81        C1762   1.256       .  A
C82        O1747   1.261       .  A
C82        O1761   1.256       .  A
C82         C621   1.489       .  S
C83         C554   1.483       .  S
C86         C541   1.471       .  S
C87          O88   1.264       .  A
C87         C522   1.512   1_455  S
O89         Al97   1.960       .  S
O89         C104   1.270       .  A
C90         O100   1.274       .  A
C90          O91   1.251       .  A
C90         C509   1.488       .  S
O91         Al93   1.848       .  S
O92         Al93   1.943       .  S
O92          C94   1.269       .  A
Al93        O101   1.937       .  S
Al93        O103   1.862       .  S
Al93        O102   1.772       .  S
C94         O107   1.263       .  A
C94         C746   1.484       .  S
O95         Al97   1.956       .  S
O95         C105   1.269       .  A
O96        Al106   1.947       .  S
O96         C109   1.272       .  A
Al97        O110   1.883       .  S
Al97        O107   1.897       .  S
Al97        O102   1.782       .  S
O98        Al106   1.861       .  S
O98         C105   1.249       .  A
O99        Al106   1.858       .  S
O99         C108   1.249       .  A
O100       Al106   1.952       .  S
O101        C108   1.261       .  A
O102       Al106   1.768       .  S
O103        C104   1.256       .  A
C104       C1330   1.493   1_545  S
C105        C538   1.495       .  S
C108        C557   1.466       .  S
C109        O110   1.261       .  A
C109        C605   1.482       .  S
O111       Al119   1.924       .  S
O111        C126   1.265       .  A
C112        O122   1.269       .  A
C112        O113   1.252       .  A
C112        C506   1.478       .  S
O113       Al115   1.854       .  S
O114       Al115   1.949       .  S
O114        C116   1.271       .  A
Al115       O123   1.959       .  S
Al115       O125   1.879       .  S
Al115       O124   1.776       .  S
C116        O129   1.266       .  A
C116        C525   1.492       .  S
O117       Al119   1.937       .  S
O117        C127   1.261       .  A
O118       Al128   1.942   1_556  S
O118        C131   1.269       .  A
Al119       O132   1.891       .  S
Al119       O129   1.912       .  S
Al119       O124   1.783       .  S
O120       Al128   1.856       .  S
O120        C127   1.252       .  A
O121       Al128   1.863       .  S
O121        C130   1.250       .  A
O122       Al128   1.938       .  S
O123        C130   1.268       .  A
O124       Al128   1.772       .  S
O125        C126   1.258       .  A
C126        C493   1.471       .  S
C127        C813   1.481   1_554  S
C130        C826   1.485       .  S
C131        O132   1.265   1_556  A
C131        C733   1.506       .  S
O133       Al141   1.937       .  S
O133        C148   1.263       .  A
C134        O144   1.270       .  A
C134        O135   1.249       .  A
C134        C474   1.492       .  S
O135       Al137   1.847       .  S
O136       Al137   1.937       .  S
O136        C138   1.269       .  A
Al137       O145   1.930       .  S
Al137       O147   1.886       .  S
Al137       O146   1.780       .  S
C138        O151   1.268       .  A
C138        C442   1.491       .  S
O139       Al141   1.934       .  S
O139        C149   1.260       .  A
O140       Al150   1.946       .  S
O140        C153   1.273       .  A
Al141       O154   1.891       .  S
Al141       O151   1.915       .  S
Al141       O146   1.788       .  S
O142       Al150   1.858       .  S
O142        C149   1.247       .  A
O143       Al150   1.840       .  S
O143        C152   1.245       .  A
O144       Al150   1.937       .  S
O145        C152   1.261       .  A
O146       Al150   1.780       .  S
O147        C148   1.257       .  A
C148        C458   1.489       .  S
C149        C701   1.470       .  S
C152        C717   1.469       .  S
C153        O154   1.265       .  A
C153        C762   1.478       .  S
O155       Al163   1.927       .  S
O155        C170   1.266       .  A
C156        O166   1.271       .  A
C156        O157   1.249       .  A
C156        C477   1.485       .  S
O157       Al159   1.847       .  S
O158       Al159   1.954       .  S
O158        C160   1.274       .  A
Al159       O167   1.959       .  S
Al159       O169   1.877       .  S
Al159       O168   1.775       .  S
C160        O173   1.262       .  A
C160        C685   1.497       .  S
O161       Al163   1.935       .  S
O161        C171   1.262       .  A
O162       Al172   1.950       .  S
O162        C175   1.270       .  A
Al163       O176   1.876       .  S
Al163       O173   1.893       .  S
Al163       O168   1.778       .  S
O164       Al172   1.853       .  S
O164        C171   1.252       .  A
O165       Al172   1.848       .  S
O165        C174   1.251       .  A
O166       Al172   1.947       .  S
O167        C174   1.267       .  A
O168       Al172   1.768       .  S
O169        C170   1.257       .  A
C170       C2141   1.465       .  S
C171        C426   1.488       .  S
C174        C410   1.501       .  S
C175        O176   1.263       .  A
C175        C394   1.492       .  S
O177       Al185   1.910       .  S
O177        C192   1.261       .  A
C178        O188   1.267       .  A
C178        O179   1.257       .  A
C178        C349   1.482       .  S
O179       Al181   1.885       .  S
O180       Al181   1.890       .  S
O180        C182   1.260       .  A
Al181       O189   1.917       .  S
Al181       O191   1.861       .  S
Al181       O190   1.788       .  S
C182        O195   1.268       .  A
C182        C589   1.501       .  S
O183       Al185   1.908       .  S
O183        C193   1.254       .  A
O184       Al194   1.909       .  S
O184        C197   1.266       .  A
Al185       O198   1.939       .  S
Al185       O195   1.921       .  S
Al185       O190   1.788       .  S
O186       Al194   1.883       .  S
O186        C193   1.250       .  A
O187       Al194   1.885       .  S
O187        C196   1.254       .  A
O188       Al194   1.926       .  S
O189        C196   1.264       .  A
O190       Al194   1.787       .  S
O191        C192   1.246       .  A
C192       C2010   1.493       .  S
C193        C381   1.500       .  S
C196        C362   1.484       .  S
C197        O198   1.274       .  A
C197        C314   1.508       .  S
O199       Al207   1.946       .  S
O199        C214   1.269       .  A
C200        O210   1.273       .  A
C200        O201   1.253       .  A
C200        C346   1.481       .  S
O201       Al203   1.848       .  S
O202       Al203   1.940       .  S
O202        C204   1.272       .  A
Al203       O211   1.962       .  S
Al203       O213   1.877       .  S
Al203       O212   1.775       .  S
C204        O217   1.263       .  A
C204        C298   1.491       .  S
O205       Al207   1.950       .  S
O205        C215   1.266       .  A
O206       Al216   1.951       .  S
O206        C219   1.271       .  A
Al207       O220   1.880       .  S
Al207       O217   1.895       .  S
Al207       O212   1.776       .  S
O208       Al216   1.840       .  S
O208        C215   1.246       .  A
O209       Al216   1.840       .  S
O209        C218   1.248       .  A
O210       Al216   1.959       .  S
O211        C218   1.266       .  A
O212       Al216   1.761       .  S
O213        C214   1.258       .  A
C214       C1173   1.466   1_545  S
C215        C650   1.465       .  S
C218        C666   1.490       .  S
C219        O220   1.261       .  A
C219        C570   1.474       .  S
O221       Al229   1.907       .  S
O221       C1076   1.261       .  A
C222        O232   1.266       .  A
C222        O223   1.256       .  A
C222        C282   1.471       .  S
O223       Al225   1.878       .  S
O224       Al225   1.918       .  S
O224        C226   1.267       .  A
Al225       O233   1.910       .  S
Al225      O1075   1.863       .  S
Al225       O234   1.784       .  S
C226        O239   1.265       .  A
C226        C317   1.492       .  S
O227       Al229   1.902       .  S
O227        C237   1.258       .  A
O228       Al238   1.909       .  S
O228        C241   1.266       .  A
Al229       O242   1.920       .  S
Al229       O239   1.923       .  S
Al229       O234   1.777       .  S
O230       Al238   1.883       .  S
O230        C237   1.251       .  A
O231       Al238   1.887       .  S
O231        C240   1.257       .  A
O232       Al238   1.918       .  S
O233        C240   1.264       .  A
O234       Al238   1.789       .  S
O235      Al1065   1.863   1_545  S
O235        C236   1.249       .  A
C236       O1061   1.261       .  A
C236        C266   1.471       .  S
C237        C413   1.472       .  S
C240       C1269   1.463       .  S
C241        O242   1.268       .  A
C241        C445   1.485       .  S
O243       Al251   1.930       .  S
O243        C258   1.262       .  A
C244        O254   1.270       .  A
C244        O245   1.253       .  A
C244        C285   1.480       .  S
O245       Al247   1.836       .  S
O246       Al247   1.923       .  S
O246        C248   1.264       .  A
Al247       O255   1.927       .  S
Al247       O257   1.875       .  S
Al247       O256   1.776       .  S
C248        O261   1.271       .  A
C248        C397   1.505       .  S
O249       Al251   1.924       .  S
O249        C259   1.261       .  A
O250       Al260   1.939       .  S
O250        C263   1.271       .  A
Al251       O264   1.884       .  S
Al251       O261   1.926       .  S
Al251       O256   1.788       .  S
O252       Al260   1.867       .  S
O252        C259   1.249       .  A
O253       Al260   1.870       .  S
O253        C262   1.251       .  A
O254       Al260   1.945       .  S
O255        C262   1.259       .  A
O256       Al260   1.781       .  S
O257        C258   1.259       .  A
C258        C269   1.484       .  S
C259        C365   1.480       .  S
C262        C378   1.484       .  S
C263        O264   1.263       .  A
C263        C301   1.475       .  S
C265        C266   1.399       .  A
C265        C270   1.407       .  A
C265        H272   1.082       .  S
C266        C267   1.416       .  A
C267        C268   1.399       .  A
C267        C274   1.519       .  S
C268        C269   1.405       .  A
C268        H273   1.082       .  S
C269        C270   1.425       .  A
C270        C271   1.522       .  S
C271        F275   1.384       .  S
C271        F276   1.383       .  S
C271        F277   1.380       .  S
C274        F279   1.378       .  S
C274        F280   1.385       .  S
C274       F1118   1.382       .  S
F278       C1114   1.382       .  S
C281        C282   1.408       .  A
C281        C286   1.401       .  A
C281        H288   1.083       .  S
C282        C283   1.408       .  A
C283        C284   1.402       .  A
C283        C290   1.519       .  S
C284        C285   1.414       .  A
C284        H289   1.083       .  S
C285        C286   1.414       .  A
C286        C287   1.519       .  S
C287        F291   1.385       .  S
C287        F292   1.381       .  S
C287        F293   1.383       .  S
C290        F294   1.383       .  S
C290        F295   1.384       .  S
C290        F296   1.385       .  S
C297        C298   1.406       .  A
C297        C302   1.402       .  A
C297        H304   1.082       .  S
C298        C299   1.426       .  A
C299        C300   1.411       .  A
C299        C306   1.520       .  S
C300        C301   1.400       .  A
C300        H305   1.083       .  S
C301        C302   1.414       .  A
C302        C303   1.519       .  S
C303        F307   1.385       .  S
C303        F308   1.382       .  S
C303        F309   1.382       .  S
C306        F310   1.384       .  S
C306        F311   1.383       .  S
C306        F312   1.385       .  S
C313        C314   1.409       .  A
C313       C1998   1.412       .  A
C313       H2000   1.082       .  S
C314        C315   1.429       .  A
C315        C316   1.415       .  A
C315        C322   1.520       .  S
C316       C1997   1.403       .  A
C316        H321   1.083       .  S
C317        C318   1.420       .  A
C317       C1996   1.401       .  A
C318       C1993   1.412   1_455  A
C318        C319   1.520       .  S
C319        F323   1.385       .  S
C319        F324   1.383       .  S
C319        F325   1.382       .  S
H320       C1993   1.082       .  S
C322        F326   1.383       .  S
C322        F327   1.383       .  S
C322        F328   1.385       .  S
C329        C330   1.397       .  A
C329       C1174   1.402       .  A
C329        H336   1.083       .  S
C330       C1872   1.472   1_455  S
C330        C331   1.424       .  A
C331        C332   1.400       .  A
C331       C2018   1.519   1_455  S
C332        C333   1.393       .  A
C332        H337   1.084       .  S
C333       C1054   1.466       .  S
C333       C1174   1.423       .  A
C334       C1169   1.403       .  A
C334       C1173   1.406       .  A
C334        C335   1.520       .  S
C335        F339   1.385       .  S
C335        F340   1.382       .  S
C335        F341   1.384       .  S
C338       C2011   1.523       .  S
C338        F342   1.383       .  S
C338        F343   1.383       .  S
C338        F344   1.385       .  S
C345        C346   1.410       .  A
C345        C350   1.407       .  A
C345        H352   1.084       .  S
C346        C347   1.411       .  A
C347        C348   1.406       .  A
C347        C354   1.518       .  S
C348        C349   1.411       .  A
C348        H353   1.083       .  S
C349        C350   1.416       .  A
C350        C351   1.521       .  S
C351        F355   1.385       .  S
C351        F356   1.384       .  S
C351        F357   1.382       .  S
C354        F358   1.383       .  S
C354        F359   1.384       .  S
C354        F360   1.384       .  S
C361        C366   1.408       .  A
C361       C2042   1.403   1_455  A
C361        H368   1.083       .  S
C362        C363   1.426       .  A
C362       C2041   1.402       .  A
C363        C364   1.402       .  A
C363        C370   1.521       .  S
C364       C2045   1.397       .  A
C364        H369   1.084       .  S
C365        C366   1.422       .  A
C365       C2044   1.397   1_455  A
C366        C367   1.519       .  S
C367        F371   1.385       .  S
C367        F372   1.384       .  S
C367        F373   1.381       .  S
C370        F374   1.384       .  S
C370        F375   1.383       .  S
C370        F376   1.385       .  S
C377        C378   1.405       .  A
C377        C382   1.408       .  A
C377        H384   1.083       .  S
C378        C379   1.412       .  A
C379        C380   1.409       .  A
C379        C386   1.519       .  S
C380        C381   1.415       .  A
C380        H385   1.082       .  S
C381        C382   1.423       .  A
C382        C383   1.520       .  S
C383        F387   1.385       .  S
C383        F388   1.383       .  S
C383        F389   1.384       .  S
C386        F390   1.382       .  S
C386        F391   1.383       .  S
C386        F392   1.384       .  S
C393        C394   1.402       .  A
C393       C2078   1.403       .  A
C393        H400   1.082       .  S
C394        C395   1.418       .  A
C395        C396   1.415       .  A
C395        C402   1.518       .  S
C396       C2077   1.412       .  A
C396        H401   1.082       .  S
C397        C398   1.430       .  A
C397       C2076   1.410   1_455  A
C398       C2073   1.406       .  A
C398        C399   1.527       .  S
C399        F403   1.384       .  S
C399        F404   1.383       .  S
C399        F405   1.381       .  S
C402        F406   1.382       .  S
C402        F407   1.383       .  S
C402        F408   1.385       .  S
C409        C414   1.398   1_655  A
C409       C2090   1.416       .  A
C409        H416   1.081       .  S
C410        C411   1.422       .  A
C410       C2089   1.416       .  A
C411        C412   1.413       .  A
C411        C418   1.518       .  S
C412       C2093   1.407       .  A
C412        H417   1.083       .  S
C413        C414   1.409       .  A
C413       C2092   1.407       .  A
C414        C415   1.524       .  S
C415        F419   1.382       .  S
C415        F420   1.385       .  S
C415        F421   1.384       .  S
C418        F422   1.384       .  S
C418        F423   1.383       .  S
C418        F424   1.385       .  S
C425        C426   1.409       .  A
C425        C430   1.395       .  A
C425        H432   1.084       .  S
C426       C1267   1.421       .  A
C427        C428   1.408       .  A
C427       C1266   1.423       .  A
C427        C434   1.519       .  S
C428       C1269   1.404       .  A
C428        H433   1.084       .  S
C429       C1080   1.464   1_545  S
C429        C430   1.413       .  A
C429       C1268   1.406       .  A
C430        C431   1.521       .  S
C431        F435   1.384       .  S
C431        F436   1.378       .  S
C431        F437   1.383       .  S
C434        F438   1.381       .  S
C434        F440   1.385       .  S
C434       F1279   1.377       .  S
F439       C1274   1.382       .  S
C441        C442   1.406       .  A
C441       C1286   1.415       .  A
C441        H448   1.083       .  S
C442        C443   1.419       .  A
C443        C444   1.407       .  A
C443        C450   1.521       .  S
C444       C1285   1.406       .  A
C444        H449   1.083       .  S
C445        C446   1.415       .  A
C445       C1284   1.400       .  A
C446       C1281   1.414       .  A
C446        C447   1.517       .  S
C447        F451   1.384       .  S
C447        F452   1.382       .  S
C447        F453   1.384       .  S
C450        F454   1.382       .  S
C450        F455   1.383       .  S
C450        F456   1.385       .  S
C457        C458   1.411       .  A
C457        C462   1.406       .  A
C457        H464   1.082       .  S
C458        C459   1.420       .  A
C459       C2140   1.407       .  A
C459        C466   1.519       .  S
C460       C2139   1.404       .  A
C460       C2141   1.401       .  A
C460        H465   1.084       .  S
C461       C1850   1.473   1_455  S
C461        C462   1.412       .  A
C461       C2140   1.401       .  A
C462        C463   1.518       .  S
C463        F467   1.385       .  S
C463        F468   1.382       .  S
C463        F469   1.381       .  S
C466        F470   1.385   1_455  S
C466        F471   1.384       .  S
C466       F2152   1.382       .  S
F472       C2146   1.383       .  S
C473        C474   1.402       .  A
C473        C478   1.404       .  A
C473        H480   1.082       .  S
C474        C475   1.433       .  A
C475        C476   1.404       .  A
C475        C482   1.526       .  S
C476        C477   1.398       .  A
C476        H481   1.083       .  S
C477        C478   1.426       .  A
C478        C479   1.523       .  S
C479        F483   1.385       .  S
C479        F484   1.383       .  S
C479        F485   1.383       .  S
C482        F486   1.384       .  S
C482        F487   1.384       .  S
C482        F488   1.385       .  S
C489        C490   1.414       .  A
C489        C494   1.400       .  A
C489        H496   1.082       .  S
C490        C944   1.490       .  S
C490        C491   1.422       .  A
C491        C492   1.407       .  A
C491       C1338   1.520       .  S
C492        C493   1.404       .  A
C492        H497   1.083       .  S
C493        C494   1.410       .  A
C494        C495   1.522       .  S
C495        F499   1.385       .  S
C495        F500   1.382       .  S
C495        F501   1.384       .  S
C498       C1331   1.520       .  S
C498        F502   1.384       .  S
C498        F503   1.383   1_565  S
C498        F504   1.385       .  S
C505        C506   1.397       .  A
C505        C510   1.404       .  A
C505        H512   1.083       .  S
C506        C507   1.421       .  A
C507        C508   1.401       .  A
C507        C514   1.520       .  S
C508        C509   1.401       .  A
C508        H513   1.082       .  S
C509        C510   1.432       .  A
C510        C511   1.524       .  S
C511        F515   1.385       .  S
C511        F516   1.384       .  S
C511        F517   1.383       .  S
C514        F518   1.384       .  S
C514        F519   1.383       .  S
C514        F520   1.385       .  S
C521        C522   1.414       .  A
C521       C2206   1.416       .  A
C521        H528   1.082   1_655  S
C522       C2203   1.430       .  A
C523        C524   1.412       .  A
C523       C2202   1.432       .  A
C523        C530   1.524       .  S
C524        C525   1.401       .  A
C524        H529   1.083       .  S
C525        C526   1.416       .  A
C526       C2201   1.415       .  A
C526        C527   1.519       .  S
C527        F532   1.382       .  S
C527       F2211   1.384       .  S
C527       F2213   1.384       .  S
C530        F534   1.384       .  S
C530        F536   1.384       .  S
C530       F2215   1.383       .  S
F531       C2207   1.385       .  S
F533       C2207   1.384       .  S
F535       C2210   1.384       .  S
C537        C542   1.409       .  A
C537       C2218   1.408       .  A
C537        H544   1.083       .  S
C538        C539   1.431       .  A
C538       C2217   1.409       .  A
C539        C540   1.405       .  A
C539        C546   1.525       .  S
C540       C2221   1.397       .  A
C540        H545   1.084       .  S
C541        C542   1.412       .  A
C541       C2220   1.399       .  A
C542        C543   1.517   1_655  S
C543        F547   1.384       .  S
C543        F548   1.383       .  S
C543        F549   1.383       .  S
C546        F550   1.383       .  S
C546        F551   1.382       .  S
C546        F552   1.385       .  S
C553        C554   1.413       .  A
C553       C1398   1.405       .  A
C553        H560   1.083       .  S
C554       C1395   1.419       .  A
C555        C556   1.406   1_565  A
C555       C1394   1.423       .  A
C555        C562   1.521   1_565  S
C556        C557   1.401       .  A
C556        H561   1.084       .  S
C557        C558   1.406   1_545  A
C558       C1393   1.404       .  A
C558       C1399   1.517       .  S
C559       C1398   1.517       .  S
C559        F563   1.384       .  S
C559        F564   1.384       .  S
C559       F1405   1.383       .  S
C562        F566   1.383       .  S
C562        F567   1.383       .  S
C562        F568   1.385       .  S
F565       C1399   1.382       .  S
C569        C570   1.397   1_565  A
C569       C1414   1.406       .  A
C569        H576   1.084       .  S
C570        C571   1.411       .  A
C571        C572   1.412       .  A
C571        C578   1.515       .  S
C572       C1413   1.410   1_545  A
C572        H577   1.083       .  S
C573        C574   1.422       .  A
C573       C1412   1.409       .  A
C574       C1409   1.408       .  A
C574        C575   1.515       .  S
C575        F579   1.384       .  S
C575        F580   1.382       .  S
C575        F581   1.381       .  S
C578        F582   1.383       .  S
C578        F583   1.383       .  S
C578        F584   1.385       .  S
C585        C586   1.398       .  A
C585        C590   1.408       .  A
C585        H592   1.076       .  S
C586        C587   1.410       .  A
C587        C588   1.409       .  A
C587        C594   1.519       .  S
C588        C589   1.413       .  A
C588        H593   1.079       .  S
C589        C590   1.431       .  A
C590        C591   1.523       .  S
C591        F595   1.384       .  S
C591        F596   1.383       .  S
C591        F597   1.383       .  S
C594        F598   1.384       .  S
C594        F600   1.384       .  S
C594       F1439   1.383       .  S
F599       C1434   1.383       .  S
C601        C606   1.411   1_565  A
C601       C1442   1.411       .  A
C601       H1448   1.083       .  S
C602       C1441   1.402       .  A
C602       C1443   1.416       .  A
C603        C604   1.411       .  A
C603       C1442   1.426       .  A
C603        C610   1.516       .  S
C604        C605   1.400   1_565  A
C604        H609   1.084       .  S
C605        C606   1.414       .  A
C606        C607   1.519       .  S
C607        F611   1.385       .  S
C607        F612   1.383       .  S
C607        F613   1.382       .  S
H608       C1441   1.084       .  S
C610        F614   1.383       .  S
C610        F616   1.385       .  S
C610       F1455   1.381       .  S
F615       C1450   1.377       .  S
C617        C618   1.398       .  A
C617        C622   1.407       .  A
C617        H624   1.084       .  S
C618        C619   1.407       .  A
C619        C620   1.399       .  A
C619        C626   1.518       .  S
C620        C621   1.411       .  A
C620        H625   1.082       .  S
C621        C622   1.427       .  A
C622        C623   1.521       .  S
C623        F627   1.385       .  S
C623        F628   1.383       .  S
C623        F629   1.383       .  S
C626        F630   1.380       .  S
C626        F631   1.384       .  S
C626        F632   1.385       .  S
C633        C634   1.413       .  A
C633        C638   1.403       .  A
C633        H640   1.082       .  S
C634        C635   1.416       .  A
C635        C636   1.405       .  A
C635        C642   1.519       .  S
C636        C637   1.411       .  A
C636        H641   1.082       .  S
C637        C638   1.414       .  A
C638        C639   1.522       .  S
C639        F643   1.384       .  S
C639        F644   1.384       .  S
C639        F645   1.383       .  S
C642        F646   1.381       .  S
C642        F647   1.383       .  S
C642        F648   1.385       .  S
C649        C650   1.405       .  A
C649        C654   1.410       .  A
C649        H656   1.078       .  S
C650        C651   1.416       .  A
C651        C652   1.398       .  A
C651        C658   1.523       .  S
C652        C653   1.400       .  A
C652        H657   1.070       .  S
C653        C654   1.410       .  A
C654        C655   1.514       .  S
C655        F659   1.385       .  S
C655        F660   1.383       .  S
C655        F661   1.383       .  S
C658        F662   1.382       .  S
C658        F663   1.383       .  S
C658        F664   1.384       .  S
C665        C666   1.411       .  A
C665        C670   1.398   1_545  A
C665        H672   1.082       .  S
C666       C1507   1.416   1_545  A
C667        C668   1.405       .  A
C667       C1506   1.407       .  A
C667        C674   1.519       .  S
C668       C1509   1.414       .  A
C668        H673   1.082       .  S
C669        C901   1.479       .  S
C669        C670   1.414       .  A
C669       C1508   1.410       .  A
C670        C671   1.524   1_565  S
C671        F675   1.385       .  S
C671        F676   1.383   1_545  S
C671        F677   1.383       .  S
C674        F678   1.383       .  S
C674        F679   1.383       .  S
C674        F680   1.384       .  S
C681        C686   1.413       .  A
C681       C1522   1.408       .  A
C681        H688   1.082   1_545  S
C682        C683   1.420       .  A
C682       C1521   1.400       .  A
C683       C1524   1.407       .  A
C683        C690   1.521       .  S
C684        C685   1.401       .  A
C684       C1523   1.409       .  A
C684        H689   1.083       .  S
C685        C686   1.423       .  A
C686        C687   1.520       .  S
C687        F691   1.385       .  S
C687        F692   1.382       .  S
C687        F693   1.384       .  S
C690        F694   1.381       .  S
C690        F695   1.384       .  S
C690        F696   1.385       .  S
C697        C698   1.404       .  A
C697        C702   1.411       .  A
C697        H704   1.083       .  S
C698        C882   1.492       .  S
C698       C1539   1.436       .  A
C699       C1538   1.435       .  A
C699       C1540   1.401       .  A
C699        C706   1.524       .  S
C700        C701   1.389       .  A
C700       C1539   1.401       .  A
C700        H705   1.084       .  S
C701        C702   1.417       .  A
C702        C703   1.517       .  S
C703        F707   1.384       .  S
C703        F708   1.384       .  S
C703        F709   1.381       .  S
C706        F710   1.380       .  S
C706        F711   1.383       .  S
C706        F712   1.385       .  S
C713        C714   1.400       .  A
C713        C718   1.404       .  A
C713        H720   1.083       .  S
C714        C715   1.427       .  A
C715        C716   1.404       .  A
C715        C722   1.519       .  S
C716        C717   1.394       .  A
C716        H721   1.084       .  S
C717        C718   1.420       .  A
C718        C719   1.519       .  S
C719        F723   1.385       .  S
C719        F724   1.384       .  S
C719        F725   1.382       .  S
C722        F726   1.383       .  S
C722        F727   1.382       .  S
C722        F728   1.385       .  S
C729        C730   1.405       .  A
C729        C734   1.413       .  A
C729        H736   1.083       .  S
C730        C731   1.422       .  A
C731        C732   1.408       .  A
C731        C738   1.523       .  S
C732        C733   1.410       .  A
C732        H737   1.082       .  S
C733        C734   1.426       .  A
C734        C735   1.520       .  S
C735        F739   1.385       .  S
C735        F740   1.383       .  S
C735        F741   1.383       .  S
C738        F742   1.383       .  S
C738        F743   1.382       .  S
C738        F744   1.385       .  S
C745        C746   1.401       .  A
C745        C750   1.410       .  A
C745        H752   1.083       .  S
C746       C2427   1.415       .  A
C747        C748   1.411       .  A
C747       C2426   1.416       .  A
C747        C754   1.518       .  S
C748        C749   1.410       .  A
C748        H753   1.082   1_655  S
C749       C2430   1.431       .  A
C750       C2429   1.430       .  A
C750        C751   1.524       .  S
C751        F755   1.385       .  S
C751        F756   1.384       .  S
C751        F757   1.383   1_554  S
C754        F758   1.382       .  S
C754        F759   1.383       .  S
C754        F760   1.385       .  S
C761        C762   1.400       .  A
C761        C766   1.409       .  A
C761        H768   1.083       .  S
C762        C763   1.416       .  A
C763        C764   1.409       .  A
C763        C770   1.516       .  S
C764        C765   1.403       .  A
C764        H769   1.083       .  S
C765        C766   1.421       .  A
C766        C767   1.517       .  S
C767        F771   1.385       .  S
C767        F772   1.379       .  S
C767        F773   1.382       .  S
C770        F774   1.384       .  S
C770        F775   1.381       .  S
C770        F776   1.385       .  S
C777        C778   1.405       .  A
C777        C782   1.404       .  A
C777        H784   1.082       .  S
C778        C779   1.426       .  A
C779        C780   1.407       .  A
C779        C786   1.523       .  S
C780        C781   1.405       .  A
C780       H2465   1.082       .  S
C781        C782   1.423       .  A
C782        C783   1.522       .  S
C783        F787   1.385       .  S
C783        F788   1.383       .  S
C783        F789   1.381       .  S
H785       C2460   1.078       .  S
C786        F790   1.383       .  S
C786       F1631   1.383   1_545  S
C786       F2472   1.385       .  S
F791       C1626   1.383       .  S
F792       C2466   1.385       .  S
C793        C794   1.406       .  A
C793        C798   1.409       .  A
C793        H800   1.084       .  S
C794        C795   1.411       .  A
C795        C796   1.404       .  A
C795        C802   1.517       .  S
C796        C797   1.409       .  A
C796        H801   1.084       .  S
C797        C798   1.415       .  A
C798        C799   1.514       .  S
C799        F803   1.385       .  S
C799        F804   1.382       .  S
C799        F805   1.384       .  S
C802        F806   1.383       .  S
C802        F807   1.381       .  S
C802        F808   1.385       .  S
C809        C810   1.405       .  A
C809        C814   1.414       .  A
C809        H816   1.083       .  S
C810       C1700   1.470       .  S
C810        C811   1.417       .  A
C811        C812   1.395   1_556  A
C811        C818   1.520   1_556  S
C812        C813   1.402   1_554  A
C812        H817   1.085       .  S
C813        C814   1.419       .  A
C814        C815   1.517       .  S
C815        F819   1.385       .  S
C815        F820   1.383       .  S
C815        F821   1.383       .  S
C818        F823   1.380   1_554  S
C818        F824   1.384       .  S
C818       F2502   1.382       .  S
F822       C2498   1.382       .  S
C825        C826   1.399       .  A
C825        C830   1.409       .  A
C825        H832   1.084       .  S
C826        C827   1.426       .  A
C827        C828   1.406       .  A
C827        C834   1.520       .  S
C828        C829   1.397       .  A
C828        H833   1.084   1_554  S
C829        C830   1.424       .  A
C830        C831   1.518       .  S
C831        F835   1.385       .  S
C831        F836   1.383       .  S
C831        F837   1.381       .  S
C834        F838   1.382       .  S
C834        F839   1.381   1_554  S
C834        F840   1.385   1_554  S
O841       Al849   1.936       .  S
O841       C2536   1.265   1_455  A
C842        O852   1.270       .  A
C842        O843   1.253       .  A
C842       C1634   1.472       .  S
O843       Al845   1.848       .  S
O844       Al845   1.948       .  S
O844        C846   1.272       .  A
Al845       O853   1.937       .  S
Al845      O2535   1.879   1_455  S
Al845       O854   1.785       .  S
C846        O859   1.263       .  A
C846       C1605   1.511       .  S
O847       Al849   1.931       .  S
O847        C857   1.263   1_556  A
O848       Al858   1.945   1_554  S
O848        C861   1.273       .  A
Al849       O862   1.888       .  S
Al849       O859   1.906       .  S
Al849       O854   1.784       .  S
O850       Al858   1.864       .  S
O850        C857   1.250   1_556  A
O851       Al858   1.852       .  S
O851        C860   1.249       .  A
O852       Al858   1.945       .  S
O853        C860   1.262       .  A
O854       Al858   1.783       .  S
O855      Al2525   1.873       .  S
O855        C856   1.251       .  A
C856       O2521   1.267       .  A
C856       C1621   1.488       .  S
C857       C1669   1.477       .  S
C860       C3330   1.469   1_455  S
C861        O862   1.260   1_554  A
C861       C1589   1.502   1_455  S
O863       Al871   1.926       .  S
C864        O874   1.272       .  A
C864        O865   1.252       .  A
C864       C1637   1.489       .  S
O865       Al867   1.832       .  S
O866       Al867   1.949       .  S
O866        C868   1.273       .  A
Al867       O875   1.964   1_565  S
Al867       O876   1.776       .  S
C868        O881   1.270       .  A
C868       C1570   1.505       .  S
O869       Al871   1.942       .  S
O869        C879   1.263       .  A
O870       Al880   1.965       .  S
O870        C883   1.279       .  A
Al871       O884   1.877       .  S
Al871       O881   1.906       .  S
Al871       O876   1.783       .  S
O872       Al880   1.861       .  S
O872        C879   1.245       .  A
O873       Al880   1.842       .  S
O873        C882   1.242   1_565  A
O874       Al880   1.963       .  S
O875        C882   1.268       .  A
O876       Al880   1.764       .  S
O877        C878   1.263       .  A
C878       C1618   1.495       .  S
C879       C1554   1.483       .  S
C883        O884   1.260       .  A
C883       C1522   1.506   1_565  S
O885       Al893   1.897       .  S
O885        C900   1.255       .  A
C886        O896   1.267       .  A
C886        O887   1.255       .  A
C886       C1477   1.487       .  S
O887       Al889   1.881       .  S
O888       Al889   1.915       .  S
O888        C890   1.267       .  A
Al889       O897   1.915       .  S
Al889       O899   1.865       .  S
Al889       O898   1.789       .  S
C890        O903   1.270       .  A
C890       C1442   1.503       .  S
O891       Al893   1.886       .  S
O891        C901   1.254       .  A
O892       Al902   1.914       .  S
O892        C905   1.265       .  A
Al893       O906   1.927       .  S
Al893       O903   1.929       .  S
Al893       O898   1.787       .  S
O894       Al902   1.890       .  S
O894        C901   1.253       .  A
O895       Al902   1.887       .  S
O895        C904   1.258       .  A
O896       Al902   1.925       .  S
O897        C904   1.265       .  A
O898       Al902   1.788       .  S
O899        C900   1.248       .  A
C900       C1458   1.460       .  S
C904       C1493   1.463       .  S
C905        O906   1.266       .  A
C905       C1426   1.486       .  S
O907       Al915   1.930       .  S
O907       C2602   1.262   1_455  A
C908        O918   1.269       .  A
C908        O909   1.251       .  A
C908       C1474   1.489       .  S
O909       Al911   1.833       .  S
O910       Al911   1.946       .  S
O910        C912   1.271       .  A
Al911       O919   1.941       .  S
Al911       O921   1.867   1_455  S
Al911       O920   1.774       .  S
C912        O925   1.266       .  A
C912       C1413   1.493       .  S
O913       Al915   1.933       .  S
O913        C923   1.261       .  A
O914       Al924   1.959       .  S
O914        C927   1.275       .  A
Al915       O928   1.881       .  S
Al915       O925   1.902       .  S
Al915       O920   1.782       .  S
O916       Al924   1.869       .  S
O916        C923   1.254       .  A
O917       Al924   1.853       .  S
O917        C926   1.251   1_455  A
O918       Al924   1.954       .  S
O919        C926   1.263   1_455  A
O920       Al924   1.774       .  S
O921       C2602   1.255       .  A
C922       O2587   1.261       .  A
C922       O2601   1.255       .  A
C922       C1461   1.487       .  S
C923       C1394   1.491       .  S
C926       C1381   1.471       .  S
C927        O928   1.260       .  A
C927       C1362   1.506   1_455  S
O929       Al937   1.953       .  S
O929        C944   1.269       .  A
C930        O940   1.273       .  A
C930        O931   1.250       .  A
C930       C1349   1.480       .  S
O931       Al933   1.840       .  S
O932       Al933   1.946       .  S
O932        C934   1.269       .  A
Al933       O941   1.940       .  S
Al933       O943   1.861       .  S
Al933       O942   1.771       .  S
C934        O947   1.263       .  A
C934       C1586   1.485       .  S
O935       Al937   1.949       .  S
O935        C945   1.268       .  A
O936       Al946   1.941       .  S
O936        C949   1.270       .  A
Al937       O950   1.883       .  S
Al937       O947   1.905       .  S
Al937       O942   1.774       .  S
O938       Al946   1.856       .  S
O938        C945   1.251       .  A
O939       Al946   1.853       .  S
O939        C948   1.249       .  A
O940       Al946   1.950       .  S
O941        C948   1.263       .  A
O942       Al946   1.768       .  S
O943        C944   1.256       .  A
C945       C1378   1.482       .  S
C948       C1397   1.465       .  S
C949        O950   1.261       .  A
C949       C1445   1.485       .  S
O951       Al959   1.928       .  S
O951        C966   1.265       .  A
C952        O962   1.270       .  A
C952        O953   1.248       .  A
C952       C1346   1.480       .  S
O953       Al955   1.842       .  S
O954       Al955   1.953       .  S
O954        C956   1.273       .  A
Al955       O963   1.961       .  S
Al955       O965   1.875       .  S
Al955       O964   1.774       .  S
C956        O969   1.265       .  A
C956       C1365   1.494       .  S
O957       Al959   1.933       .  S
O957        C967   1.261       .  A
O958       Al968   1.948   1_556  S
O958        C971   1.270       .  A
Al959       O972   1.888       .  S
Al959       O969   1.907       .  S
Al959       O964   1.778       .  S
O960       Al968   1.859       .  S
O960        C967   1.253       .  A
O961       Al968   1.856       .  S
O961        C970   1.248       .  A
O962       Al968   1.942       .  S
O963        C970   1.269       .  A
O964       Al968   1.769       .  S
O965        C966   1.257       .  A
C966       C1333   1.473       .  S
C967       C1653   1.484   1_554  S
C970       C1666   1.484       .  S
C971        O972   1.266   1_556  A
C971       C1573   1.499       .  S
O973       Al981   1.913       .  S
O973        C988   1.256       .  A
C974        O984   1.270       .  A
C974        O975   1.249       .  A
C974       C1314   1.492       .  S
O975       Al977   1.849       .  S
O976       Al977   1.938       .  S
O976        C978   1.271       .  A
Al977       O985   1.929       .  S
Al977       O987   1.889       .  S
Al977       O986   1.783       .  S
C978        O991   1.272       .  A
C978       C1282   1.500       .  S
O979       Al981   1.923       .  S
O979        C989   1.257       .  A
O980       Al990   1.954       .  S
O980        C993   1.276       .  A
Al981       O994   1.891       .  S
Al981       O991   1.916       .  S
Al981       O986   1.790       .  S
O982       Al990   1.860       .  S
O982        C989   1.245       .  A
O983       Al990   1.849       .  S
O983        C992   1.247       .  A
O984       Al990   1.934       .  S
O985        C992   1.261       .  A
O986       Al990   1.781       .  S
O987        C988   1.257       .  A
C988       C1298   1.491       .  S
C989       C1541   1.469       .  S
C992       C1557   1.475       .  S
C993        O994   1.266       .  A
C993       C1602   1.489       .  S
O995      Al1003   1.935       .  S
O995       C1010   1.265       .  A
C996       O1006   1.269       .  A
C996        O997   1.250       .  A
C996       C1317   1.478       .  S
O997       Al999   1.855       .  S
O998       Al999   1.958       .  S
O998       C1000   1.277       .  A
Al999      O1007   1.966       .  S
Al999      O1009   1.871       .  S
Al999      O1008   1.771       .  S
C1000      O1013   1.264       .  A
C1000      C1525   1.509       .  S
O1001     Al1003   1.952       .  S
O1001      C1011   1.266       .  A
O1002     Al1012   1.938       .  S
O1002      C1015   1.269       .  A
Al1003     O1016   1.898       .  S
Al1003     O1013   1.899       .  S
Al1003     O1008   1.780       .  S
O1004     Al1012   1.858       .  S
O1004      C1011   1.254       .  A
O1005     Al1012   1.847       .  S
O1005      C1014   1.251       .  A
O1006     Al1012   1.938       .  S
O1007      C1014   1.270       .  A
O1008     Al1012   1.761       .  S
O1009      C1010   1.254       .  A
C1010      C2981   1.462       .  S
C1011      C1266   1.494       .  S
C1014      C1250   1.499       .  S
C1015      O1016   1.264       .  A
C1015      C1234   1.477       .  S
O1017     Al1025   1.908       .  S
O1017      C1032   1.258       .  A
C1018      O1028   1.266       .  A
C1018      O1019   1.257       .  A
C1018      C1189   1.469       .  S
O1019     Al1021   1.876       .  S
O1020     Al1021   1.907       .  S
O1020      C1022   1.262       .  A
Al1021     O1029   1.921       .  S
Al1021     O1031   1.859       .  S
Al1021     O1030   1.786       .  S
C1022      O1035   1.269       .  A
C1022      C1429   1.514       .  S
O1023     Al1025   1.904       .  S
O1023      C1033   1.254       .  A
O1024     Al1034   1.907       .  S
O1024      C1037   1.266       .  A
Al1025     O1038   1.945       .  S
Al1025     O1035   1.935       .  S
Al1025     O1030   1.784       .  S
O1026     Al1034   1.889       .  S
O1026      C1033   1.251       .  A
O1027     Al1034   1.885       .  S
O1027      C1036   1.253       .  A
O1028     Al1034   1.914       .  S
O1029      C1036   1.265       .  A
O1030     Al1034   1.789       .  S
O1031      C1032   1.252       .  A
C1032      C2850   1.492       .  S
C1033      C1221   1.499       .  S
C1036      C1202   1.485       .  S
C1037      O1038   1.275       .  A
C1037      C1154   1.511       .  S
O1039     Al1047   1.937       .  S
O1039      C1054   1.265       .  A
C1040      O1050   1.266       .  A
C1040      O1041   1.245       .  A
C1040      C1186   1.466       .  S
O1041     Al1043   1.820       .  S
O1042     Al1043   1.927       .  S
O1042      C1044   1.269       .  A
Al1043     O1051   1.934       .  S
Al1043     O1053   1.864       .  S
Al1043     O1052   1.779       .  S
C1044      O1057   1.262       .  A
C1044      C1138   1.489       .  S
O1045     Al1047   1.945       .  S
O1045      C1055   1.264       .  A
O1046     Al1056   1.946       .  S
O1046      C1059   1.271       .  A
Al1047     O1060   1.894       .  S
Al1047     O1057   1.895       .  S
Al1047     O1052   1.785       .  S
O1048     Al1056   1.852       .  S
O1048      C1055   1.248       .  A
O1049     Al1056   1.853       .  S
O1049      C1058   1.251       .  A
O1050     Al1056   1.943       .  S
O1051      C1058   1.264       .  A
O1052     Al1056   1.781       .  S
O1053      C1054   1.251       .  A
C1055      C1490   1.468       .  S
C1058      C1506   1.467       .  S
C1059      O1060   1.264       .  A
C1059      C1410   1.479       .  S
O1061     Al1069   1.914   1_545  S
C1062      O1072   1.265       .  A
C1062      O1063   1.256       .  A
C1062      C1122   1.463       .  S
O1063     Al1065   1.878       .  S
O1064     Al1065   1.923       .  S
O1064      C1066   1.267       .  A
Al1065     O1073   1.916   1_565  S
Al1065     O1074   1.782       .  S
C1066      O1079   1.266       .  A
C1066      C1157   1.497       .  S
O1067     Al1069   1.903       .  S
O1067      C1077   1.257       .  A
O1068     Al1078   1.904       .  S
O1068      C1081   1.265       .  A
Al1069     O1082   1.932       .  S
Al1069     O1079   1.929       .  S
Al1069     O1074   1.780       .  S
O1070     Al1078   1.884       .  S
O1070      C1077   1.251       .  A
O1071     Al1078   1.890       .  S
O1071      C1080   1.255       .  A
O1072     Al1078   1.913       .  S
O1073      C1080   1.265   1_545  A
O1074     Al1078   1.793       .  S
O1075      C1076   1.249       .  A
C1076      C1106   1.470       .  S
C1077      C1253   1.471       .  S
C1081      O1082   1.272       .  A
C1081      C1285   1.497   1_565  S
O1083     Al1091   1.932       .  S
O1083      C1098   1.260       .  A
C1084      O1094   1.267       .  A
C1084      O1085   1.249       .  A
C1084      C1125   1.475       .  S
O1085     Al1087   1.831       .  S
O1086     Al1087   1.940       .  S
O1086      C1088   1.271       .  A
Al1087     O1095   1.934       .  S
Al1087     O1097   1.866       .  S
Al1087     O1096   1.781       .  S
C1088      O1101   1.267       .  A
C1088      C1237   1.483       .  S
O1089     Al1091   1.928       .  S
O1089      C1099   1.260       .  A
O1090     Al1100   1.944       .  S
O1090      C1103   1.273       .  A
Al1091     O1104   1.890       .  S
Al1091     O1101   1.902       .  S
Al1091     O1096   1.790       .  S
O1092     Al1100   1.863       .  S
O1092      C1099   1.247       .  A
O1093     Al1100   1.850       .  S
O1093      C1102   1.250       .  A
O1094     Al1100   1.939       .  S
O1095      C1102   1.261       .  A
O1096     Al1100   1.778       .  S
O1097      C1098   1.254       .  A
C1098      C1109   1.474       .  S
C1099      C1205   1.481       .  S
C1102      C1218   1.480       .  S
C1103      O1104   1.265       .  A
C1103      C1141   1.476       .  S
C1105      C1106   1.401       .  A
C1105      C1110   1.403       .  A
C1105      H1112   1.083       .  S
C1106      C1107   1.420       .  A
C1107      C1108   1.398       .  A
C1107      C1114   1.521       .  S
C1108      C1109   1.400       .  A
C1108      H1113   1.082       .  S
C1109      C1110   1.420       .  A
C1110      C1111   1.517       .  S
C1111      F1115   1.385       .  S
C1111      F1116   1.383       .  S
C1111      F1117   1.379       .  S
C1114      F1119   1.380       .  S
C1114      F1120   1.385       .  S
C1121      C1122   1.404       .  A
C1121      C1126   1.399       .  A
C1121      H1128   1.083       .  S
C1122      C1123   1.406       .  A
C1123      C1124   1.402       .  A
C1123      C1130   1.517       .  S
C1124      C1125   1.411       .  A
C1124      H1129   1.084       .  S
C1125      C1126   1.413       .  A
C1126      C1127   1.514       .  S
C1127      F1131   1.385       .  S
C1127      F1132   1.381       .  S
C1127      F1133   1.382       .  S
C1130      F1134   1.383       .  S
C1130      F1135   1.384       .  S
C1130      F1136   1.384       .  S
C1137      C1138   1.406       .  A
C1137      C1142   1.404       .  A
C1137      H1144   1.083       .  S
C1138      C1139   1.424       .  A
C1139      C1140   1.411       .  A
C1139      C1146   1.519       .  S
C1140      C1141   1.400       .  A
C1140      H1145   1.083       .  S
C1141      C1142   1.413       .  A
C1142      C1143   1.515       .  S
C1143      F1147   1.384       .  S
C1143      F1148   1.383       .  S
C1143      F1149   1.380       .  S
C1146      F1150   1.384       .  S
C1146      F1151   1.383       .  S
C1146      F1152   1.385       .  S
C1153      C1154   1.408       .  A
C1153      C2838   1.412       .  A
C1153      H2840   1.082       .  S
C1154      C1155   1.430       .  A
C1155      C1156   1.417       .  A
C1155      C1162   1.519       .  S
C1156      C2837   1.403       .  A
C1156      H1161   1.083       .  S
C1157      C2836   1.402       .  A
C1157      C1158   1.418       .  A
C1158      C2833   1.411   1_455  A
C1158      C1159   1.516       .  S
C1159      F1163   1.385       .  S
C1159      F1164   1.382       .  S
C1159      F1165   1.382       .  S
H1160      C2833   1.082       .  S
C1162      F1166   1.383       .  S
C1162      F1167   1.383       .  S
C1162      F1168   1.383       .  S
C1169      C1170   1.415       .  A
C1169      H1176   1.082       .  S
C1170      C2712   1.494   1_455  S
C1170      C1171   1.424       .  A
C1171      C1172   1.408       .  A
C1171      C2858   1.521       .  S
C1172      C1173   1.401       .  A
C1172      H1177   1.084   1_565  S
C1174      C1175   1.519       .  S
C1175      F1179   1.385       .  S
C1175      F1180   1.380       .  S
C1175      F1181   1.380       .  S
C1178      C2851   1.521       .  S
C1178      F1182   1.384       .  S
C1178      F1183   1.383       .  S
C1178      F1184   1.385   1_565  S
C1185      C1186   1.408       .  A
C1185      C1190   1.399       .  A
C1185      H1192   1.084       .  S
C1186      C1187   1.408       .  A
C1187      C1188   1.403       .  A
C1187      C1194   1.518       .  S
C1188      C1189   1.411       .  A
C1188      H1193   1.083       .  S
C1189      C1190   1.413       .  A
C1190      C1191   1.521       .  S
C1191      F1195   1.385       .  S
C1191      F1196   1.384       .  S
C1191      F1197   1.383       .  S
C1194      F1198   1.383       .  S
C1194      F1199   1.383       .  S
C1194      F1200   1.384       .  S
C1201      C2882   1.400   1_455  A
C1201      C1206   1.406       .  A
C1201      H1208   1.083       .  S
C1202      C2881   1.400       .  A
C1202      C1203   1.426       .  A
C1203      C1204   1.404       .  A
C1203      C1210   1.521       .  S
C1204      C2885   1.399       .  A
C1204      H1209   1.084       .  S
C1205      C2884   1.398       .  A
C1205      C1206   1.423       .  A
C1206      C1207   1.518       .  S
C1207      F1211   1.385       .  S
C1207      F1212   1.383       .  S
C1207      F1213   1.378       .  S
C1210      F1214   1.384       .  S
C1210      F1215   1.383       .  S
C1210      F1216   1.385       .  S
C1217      C1218   1.404       .  A
C1217      C1222   1.404       .  A
C1217      H1224   1.083       .  S
C1218      C1219   1.410       .  A
C1219      C1220   1.410       .  A
C1219      C1226   1.518       .  S
C1220      C1221   1.417       .  A
C1220      H1225   1.082       .  S
C1221      C1222   1.423       .  A
C1222      C1223   1.522       .  S
C1223      F1227   1.385       .  S
C1223      F1228   1.383       .  S
C1223      F1229   1.383       .  S
C1226      F1230   1.381       .  S
C1226      F1231   1.382       .  S
C1226      F1232   1.385       .  S
C1233      C1234   1.401       .  A
C1233      C2918   1.409       .  A
C1233      H1240   1.084       .  S
C1234      C1235   1.411       .  A
C1235      C1236   1.407       .  A
C1235      C1242   1.511       .  S
C1236      C2917   1.404       .  A
C1236      H1241   1.083       .  S
C1237      C2916   1.404   1_455  A
C1237      C1238   1.420       .  A
C1238      C2913   1.409       .  A
C1238      C1239   1.517       .  S
C1239      F1243   1.385       .  S
C1239      F1244   1.383       .  S
C1239      F1245   1.381       .  S
C1242      F1246   1.383       .  S
C1242      F1247   1.383       .  S
C1242      F1248   1.384       .  S
C1249      C2930   1.415       .  A
C1249      C1254   1.398   1_655  A
C1249      H1256   1.081       .  S
C1250      C2929   1.416       .  A
C1250      C1251   1.419       .  A
C1251      C1252   1.413       .  A
C1251      C1258   1.518       .  S
C1252      C2933   1.409       .  A
C1252      H1257   1.083       .  S
C1253      C2932   1.405       .  A
C1253      C1254   1.409       .  A
C1254      C1255   1.523       .  S
C1255      F1259   1.382       .  S
C1255      F1260   1.385       .  S
C1255      F1261   1.382       .  S
C1258      F1262   1.383       .  S
C1258      F1263   1.382       .  S
C1258      F1264   1.385       .  S
C1265      C1266   1.413       .  A
C1265      C1270   1.398       .  A
C1265      H1272   1.084       .  S
C1267      C1268   1.410       .  A
C1267      C1274   1.520       .  S
C1268      H1273   1.083   1_545  S
C1269      C1270   1.412       .  A
C1270      C1271   1.523       .  S
C1271      F1275   1.383       .  S
C1271      F1276   1.378       .  S
C1271      F1277   1.384       .  S
C1274      F1278   1.383       .  S
C1274      F1280   1.385   1_545  S
C1281      C1282   1.411       .  A
C1281      H1288   1.083       .  S
C1282      C1283   1.428       .  A
C1283      C1284   1.407       .  A
C1283      C1290   1.522       .  S
C1284      H1289   1.084       .  S
C1285      C1286   1.424       .  A
C1286      C1287   1.520   1_545  S
C1287      F1291   1.385       .  S
C1287      F1292   1.383       .  S
C1287      F1293   1.384       .  S
C1290      F1294   1.383       .  S
C1290      F1295   1.382       .  S
C1290      F1296   1.385       .  S
C1297      C1298   1.409       .  A
C1297      C1302   1.403       .  A
C1297      H1304   1.082       .  S
C1298      C1299   1.428       .  A
C1299      C2980   1.405       .  A
C1299      C1306   1.523       .  S
C1300      C2979   1.405       .  A
C1300      C2981   1.401       .  A
C1300      H1305   1.084       .  S
C1301      C2690   1.474   1_455  S
C1301      C2980   1.400       .  A
C1301      C1302   1.415       .  A
C1302      C1303   1.521       .  S
C1303      F1307   1.385       .  S
C1303      F1308   1.382       .  S
C1303      F1309   1.384       .  S
C1306      F1310   1.385   1_455  S
C1306      F1311   1.383       .  S
C1306      F2992   1.383       .  S
F1312      C2986   1.382       .  S
C1313      C1314   1.404       .  A
C1313      C1318   1.405       .  A
C1313      H1320   1.082       .  S
C1314      C1315   1.433       .  A
C1315      C1316   1.402       .  A
C1315      C1322   1.524       .  S
C1316      C1317   1.395       .  A
C1316      H1321   1.083       .  S
C1317      C1318   1.421       .  A
C1318      C1319   1.521       .  S
C1319      F1323   1.385       .  S
C1319      F1324   1.383       .  S
C1319      F1325   1.383       .  S
C1322      F1326   1.383       .  S
C1322      F1327   1.381       .  S
C1322      F1328   1.384       .  S
C1329      C1330   1.413       .  A
C1329      C1334   1.398       .  A
C1329      H1336   1.081       .  S
C1330      C1331   1.422       .  A
C1331      C1332   1.408       .  A
C1332      C1333   1.405       .  A
C1332      H1337   1.083       .  S
C1333      C1334   1.410       .  A
C1334      C1335   1.522       .  S
C1335      F1339   1.385       .  S
C1335      F1340   1.383       .  S
C1335      F1341   1.384       .  S
C1338      F1342   1.384       .  S
C1338      F1343   1.383       .  S
C1338      F1344   1.384       .  S
C1345      C1346   1.399       .  A
C1345      C1350   1.401       .  A
C1345      H1352   1.083       .  S
C1346      C1347   1.429       .  A
C1347      C1348   1.400       .  A
C1347      C1354   1.525       .  S
C1348      C1349   1.397       .  A
C1348      H1353   1.080       .  S
C1349      C1350   1.427       .  A
C1350      C1351   1.523       .  S
C1351      F1355   1.385       .  S
C1351      F1356   1.384       .  S
C1351      F1357   1.384       .  S
C1354      F1358   1.383       .  S
C1354      F1359   1.384       .  S
C1354      F1360   1.385       .  S
C1361      C1362   1.413       .  A
C1361      C3046   1.413       .  A
C1361      H1368   1.082   1_655  S
C1362      C3043   1.432       .  A
C1363      C3042   1.433       .  A
C1363      C1364   1.412       .  A
C1363      C1370   1.523       .  S
C1364      C1365   1.401       .  A
C1364      H1369   1.083       .  S
C1365      C1366   1.418       .  A
C1366      C3041   1.415       .  A
C1366      C1367   1.520       .  S
C1367      F3051   1.384       .  S
C1367      F1372   1.383       .  S
C1367      F3053   1.384       .  S
C1370      F1374   1.384       .  S
C1370      F3055   1.383       .  S
C1370      F1376   1.385       .  S
F1371      C3047   1.384       .  S
F1373      C3047   1.384       .  S
F1375      C3050   1.383       .  S
C1377      C3058   1.408       .  A
C1377      C1382   1.411       .  A
C1377      H1384   1.083       .  S
C1378      C3057   1.407       .  A
C1378      C1379   1.424       .  A
C1379      C1380   1.398       .  A
C1379      C1386   1.521       .  S
C1380      C3061   1.398       .  A
C1380      H1385   1.084       .  S
C1381      C3060   1.397       .  A
C1381      C1382   1.413       .  A
C1382      C1383   1.516       .  S
C1383      F1387   1.385       .  S
C1383      F1388   1.383       .  S
C1383      F1389   1.383   1_655  S
C1386      F1390   1.381       .  S
C1386      F1391   1.381       .  S
C1386      F1392   1.385       .  S
C1393      C1394   1.413       .  A
C1393      H1400   1.082       .  S
C1395      C1396   1.403       .  A
C1395      C1402   1.520       .  S
C1396      C1397   1.402       .  A
C1396      H1401   1.084       .  S
C1397      C1398   1.406       .  A
C1399      F1403   1.385       .  S
C1399      F1404   1.384       .  S
C1402      F1406   1.382       .  S
C1402      F1407   1.382       .  S
C1402      F1408   1.385       .  S
C1409      C1410   1.398       .  A
C1409      H1416   1.082       .  S
C1410      C1411   1.412       .  A
C1411      C1412   1.413       .  A
C1411      C1418   1.515       .  S
C1412      H1417   1.083       .  S
C1413      C1414   1.423       .  A
C1414      C1415   1.516       .  S
C1415      F1419   1.384       .  S
C1415      F1420   1.380       .  S
C1415      F1421   1.382       .  S
C1418      F1422   1.383       .  S
C1418      F1423   1.383       .  S
C1418      F1424   1.384       .  S
C1425      C1426   1.399       .  A
C1425      C1430   1.414       .  A
C1425      H1432   1.081       .  S
C1426      C1427   1.411       .  A
C1427      C1428   1.415       .  A
C1427      C1434   1.517       .  S
C1428      C1429   1.415       .  A
C1428      H1433   1.080       .  S
C1429      C1430   1.433       .  A
C1430      C1431   1.521       .  S
C1431      F1435   1.385       .  S
C1431      F1436   1.383       .  S
C1431      F1437   1.383       .  S
C1434      F1438   1.384       .  S
C1434      F1440   1.385       .  S
C1441      C1446   1.408       .  A
C1443      C1444   1.409       .  A
C1443      C1450   1.516       .  S
C1444      C1445   1.405       .  A
C1444      H1449   1.083       .  S
C1445      C1446   1.420       .  A
C1446      C1447   1.519       .  S
C1447      F1451   1.385       .  S
C1447      F1452   1.384       .  S
C1447      F1453   1.382       .  S
C1450      F1454   1.384       .  S
C1450      F1456   1.384       .  S
C1457      C1458   1.397       .  A
C1457      C1462   1.405       .  A
C1457      H1464   1.084       .  S
C1458      C1459   1.410       .  A
C1459      C1460   1.400       .  A
C1459      C1466   1.521       .  S
C1460      C1461   1.411       .  A
C1460      H1465   1.082       .  S
C1461      C1462   1.425       .  A
C1462      C1463   1.521       .  S
C1463      F1467   1.385       .  S
C1463      F1468   1.384       .  S
C1463      F1469   1.383       .  S
C1466      F1470   1.382       .  S
C1466      F1471   1.384       .  S
C1466      F1472   1.385       .  S
C1473      C1474   1.414       .  A
C1473      C1478   1.404       .  A
C1473      H1480   1.083       .  S
C1474      C1475   1.414       .  A
C1475      C1476   1.406       .  A
C1475      C1482   1.519       .  S
C1476      C1477   1.414       .  A
C1476      H1481   1.080       .  S
C1477      C1478   1.411       .  A
C1478      C1479   1.519       .  S
C1479      F1483   1.385       .  S
C1479      F1484   1.383       .  S
C1479      F1485   1.383       .  S
C1482      F1486   1.382       .  S
C1482      F1487   1.383       .  S
C1482      F1488   1.385       .  S
C1489      C1490   1.405       .  A
C1489      C1494   1.410       .  A
C1489      H1496   1.084       .  S
C1490      C1491   1.416       .  A
C1491      C1492   1.397       .  A
C1491      C1498   1.521       .  S
C1492      C1493   1.399       .  A
C1492      H1497   1.085       .  S
C1493      C1494   1.412       .  A
C1494      C1495   1.515       .  S
C1495      F1499   1.384       .  S
C1495      F1500   1.383       .  S
C1495      F1501   1.384       .  S
C1498      F1502   1.379       .  S
C1498      F1503   1.383       .  S
C1498      F1504   1.385       .  S
C1505      C1506   1.400       .  A
C1505      C1510   1.405       .  A
C1505      H1512   1.084       .  S
C1507      C1508   1.412       .  A
C1507      C1514   1.516       .  S
C1508      H1513   1.083       .  S
C1509      C1510   1.424       .  A
C1510      C1511   1.521       .  S
C1511      F1515   1.385       .  S
C1511      F1516   1.384       .  S
C1511      F1517   1.383       .  S
C1514      F1518   1.382       .  S
C1514      F1519   1.383   1_565  S
C1514      F1520   1.385       .  S
C1521      C1526   1.416       .  A
C1521      H1528   1.083       .  S
C1522      C1523   1.432       .  A
C1523      C1530   1.524       .  S
C1524      C1525   1.407       .  A
C1524      H1529   1.082       .  S
C1525      C1526   1.432       .  A
C1526      C1527   1.519       .  S
C1527      F1531   1.385       .  S
C1527      F1532   1.384       .  S
C1527      F1533   1.383       .  S
C1530      F1534   1.383       .  S
C1530      F1535   1.383       .  S
C1530      F1536   1.385       .  S
C1537      C1538   1.404       .  A
C1537      C1542   1.409       .  A
C1537      H1544   1.083       .  S
C1539      C1546   1.524   1_545  S
C1540      C1541   1.390       .  A
C1540      H1545   1.084       .  S
C1541      C1542   1.416       .  A
C1542      C1543   1.517       .  S
C1543      F1547   1.384       .  S
C1543      F1548   1.383       .  S
C1543      F1549   1.382       .  S
C1546      F1550   1.379       .  S
C1546      F1551   1.383       .  S
C1546      F1552   1.385       .  S
C1553      C1554   1.399       .  A
C1553      C1558   1.402       .  A
C1553      H1560   1.084       .  S
C1554      C1555   1.428       .  A
C1555      C1556   1.408       .  A
C1555      C1562   1.520       .  S
C1556      C1557   1.396       .  A
C1556      H1561   1.083       .  S
C1557      C1558   1.421       .  A
C1558      C1559   1.518       .  S
C1559      F1563   1.385       .  S
C1559      F1564   1.383       .  S
C1559      F1565   1.383       .  S
C1562      F1566   1.384       .  S
C1562      F1567   1.382       .  S
C1562      F1568   1.385       .  S
C1569      C1570   1.412       .  A
C1569      C1574   1.415       .  A
C1569      H1576   1.082       .  S
C1570      C1571   1.426       .  A
C1571      C1572   1.407       .  A
C1571      C1578   1.523       .  S
C1572      C1573   1.405       .  A
C1572      H1577   1.082       .  S
C1573      C1574   1.421       .  A
C1574      C1575   1.520       .  S
C1575      F1579   1.385       .  S
C1575      F1580   1.382       .  S
C1575      F1581   1.381       .  S
C1578      F1582   1.383       .  S
C1578      F1583   1.383       .  S
C1578      F1584   1.385       .  S
C1585      C1586   1.400       .  A
C1585      C1590   1.411       .  A
C1585      H1592   1.083       .  S
C1586      C3267   1.414       .  A
C1587      C3266   1.415       .  A
C1587      C1588   1.410       .  A
C1587      C1594   1.518       .  S
C1588      C1589   1.410       .  A
C1588      H1593   1.082   1_655  S
C1589      C3270   1.430       .  A
C1590      C3269   1.430       .  A
C1590      C1591   1.522       .  S
C1591      F1595   1.385       .  S
C1591      F1596   1.384       .  S
C1591      F1597   1.384       .  S
C1594      F1598   1.382       .  S
C1594      F1599   1.383       .  S
C1594      F1600   1.384       .  S
C1601      C1602   1.401       .  A
C1601      C1606   1.415       .  A
C1601      H1608   1.082       .  S
C1602      C1603   1.417       .  A
C1603      C1604   1.409       .  A
C1603      C1610   1.521       .  S
C1604      C1605   1.410       .  A
C1604      H1609   1.082       .  S
C1605      C1606   1.431       .  A
C1606      C1607   1.518       .  S
C1607      F1611   1.385       .  S
C1607      F1612   1.383       .  S
C1607      F1613   1.382       .  S
C1610      F1614   1.381       .  S
C1610      F1615   1.384       .  S
C1610      F1616   1.385       .  S
C1617      C1618   1.406       .  A
C1617      C1622   1.405       .  A
C1617      H1624   1.082       .  S
C1618      C1619   1.428       .  A
C1619      C1620   1.407       .  A
C1619      C1626   1.523       .  S
C1620      C1621   1.402       .  A
C1620      H3305   1.083       .  S
C1621      C1622   1.422       .  A
C1622      C1623   1.519       .  S
C1623      F1627   1.385       .  S
C1623      F1628   1.383       .  S
C1623      F1629   1.378       .  S
H1625      C3300   1.084       .  S
C1626      F1630   1.383       .  S
C1626      F3312   1.385       .  S
F1632      C3306   1.385       .  S
C1633      C1634   1.407       .  A
C1633      C1638   1.409       .  A
C1633      H1640   1.084       .  S
C1634      C1635   1.409       .  A
C1635      C1636   1.400       .  A
C1635      C1642   1.519       .  S
C1636      C1637   1.413       .  A
C1636      H1641   1.083       .  S
C1637      C1638   1.416       .  A
C1638      C1639   1.515       .  S
C1639      F1643   1.385       .  S
C1639      F1644   1.382       .  S
C1639      F1645   1.383       .  S
C1642      F1646   1.382       .  S
C1642      F1647   1.383       .  S
C1642      F1648   1.385       .  S
C1649      C1650   1.402       .  A
C1649      C1654   1.412       .  A
C1649      H1656   1.083       .  S
C1650      C2540   1.466       .  S
C1650      C1651   1.416       .  A
C1651      C1652   1.394   1_556  A
C1651      C1658   1.519   1_556  S
C1652      C1653   1.403   1_554  A
C1652      H1657   1.085       .  S
C1653      C1654   1.421       .  A
C1654      C1655   1.517       .  S
C1655      F1659   1.384       .  S
C1655      F1660   1.383       .  S
C1655      F1661   1.381       .  S
C1658      F3342   1.381       .  S
C1658      F1663   1.379   1_554  S
C1658      F1664   1.383   1_554  S
F1662      C3338   1.382       .  S
C1665      C1666   1.402       .  A
C1665      C1670   1.410       .  A
C1665      H1672   1.084       .  S
C1666      C1667   1.429       .  A
C1667      C1668   1.402       .  A
C1667      C1674   1.522   1_554  S
C1668      C1669   1.393       .  A
C1668      H1673   1.082   1_554  S
C1669      C1670   1.420       .  A
C1670      C1671   1.517       .  S
C1671      F1675   1.385       .  S
C1671      F1676   1.384       .  S
C1671      F1677   1.381       .  S
C1674      F1678   1.382   1_556  S
C1674      F1679   1.382       .  S
C1674      F1680   1.385       .  S
O1681     Al1689   1.938       .  S
C1682      O1692   1.269       .  A
C1682      O1683   1.252       .  A
C1682      C2474   1.469       .  S
O1683     Al1685   1.851       .  S
O1684     Al1685   1.939       .  S
O1684      C1686   1.272       .  A
Al1685     O1693   1.935       .  S
Al1685     O1694   1.781       .  S
C1686      O1699   1.263       .  A
C1686      C2445   1.506       .  S
O1687     Al1689   1.934       .  S
O1687      C1697   1.264   1_556  A
O1688     Al1698   1.944   1_554  S
O1688      C1701   1.273       .  A
Al1689     O1702   1.883       .  S
Al1689     O1699   1.904       .  S
Al1689     O1694   1.784       .  S
O1690     Al1698   1.862       .  S
O1690      C1697   1.249   1_556  A
O1691     Al1698   1.854       .  S
O1691      C1700   1.250       .  A
O1692     Al1698   1.945       .  S
O1693      C1700   1.262       .  A
O1694     Al1698   1.779       .  S
O1695      C1696   1.251       .  A
C1696      C2461   1.498       .  S
C1697      C2509   1.479       .  S
C1701      O1702   1.259   1_554  A
C1701      C2429   1.501       .  S
O1703     Al1711   1.918       .  S
O1703      C2558   1.258       .  A
C1704      O1714   1.269       .  A
C1704      O1705   1.253       .  A
C1704      C2477   1.481       .  S
O1705     Al1707   1.852       .  S
O1706     Al1707   1.959       .  S
O1706      C1708   1.276       .  A
Al1707     O1715   1.961       .  S
Al1707     O2557   1.893       .  S
Al1707     O1716   1.775       .  S
C1708      O1721   1.272       .  A
C1708      C2410   1.502       .  S
O1709     Al1711   1.934       .  S
O1709      C1719   1.261       .  A
O1710     Al1720   1.959       .  S
O1710      C1723   1.276       .  A
Al1711     O1724   1.884       .  S
Al1711     O1721   1.911       .  S
Al1711     O1716   1.784       .  S
O1712     Al1720   1.858       .  S
O1712      C1719   1.245       .  A
O1713     Al1720   1.830       .  S
O1713      C1722   1.241       .  A
O1714     Al1720   1.947       .  S
O1715      C1722   1.269       .  A
O1716     Al1720   1.772       .  S
O1717     Al2547   1.863   1_545  S
O1717      C1718   1.252       .  A
C1718      O2543   1.259       .  A
C1718      C2458   1.481       .  S
C1719      C2394   1.473       .  S
C1722      C3218   1.488       .  S
C1723      O1724   1.264       .  A
C1723      C2362   1.482       .  S
O1725     Al1733   1.898       .  S
O1725      C1740   1.257       .  A
C1726      O1736   1.267       .  A
C1726      O1727   1.260       .  A
C1726      C2317   1.487       .  S
O1727     Al1729   1.892       .  S
O1728     Al1729   1.918       .  S
O1728      C1730   1.266       .  A
Al1729     O1737   1.919       .  S
Al1729     O1739   1.875       .  S
Al1729     O1738   1.784       .  S
C1730      O1743   1.265       .  A
C1730      C2282   1.493       .  S
O1731     Al1733   1.901       .  S
O1731      C1741   1.256       .  A
O1732     Al1742   1.912       .  S
O1732      C1745   1.266       .  A
Al1733     O1746   1.929       .  S
Al1733     O1743   1.917       .  S
Al1733     O1738   1.785       .  S
O1734     Al1742   1.893       .  S
O1734      C1741   1.255       .  A
O1735     Al1742   1.882       .  S
O1735      C1744   1.254       .  A
O1736     Al1742   1.915       .  S
O1737      C1744   1.262       .  A
O1738     Al1742   1.785       .  S
O1739      C1740   1.253       .  A
C1740      C2298   1.460       .  S
C1741      C3189   1.489       .  S
C1744      C2333   1.463       .  S
C1745      O1746   1.267       .  A
C1745      C2266   1.487       .  S
O1747     Al1755   1.928       .  S
C1748      O1758   1.269       .  A
C1748      O1749   1.250       .  A
C1748      C2314   1.487       .  S
O1749     Al1751   1.833       .  S
O1750     Al1751   1.947       .  S
O1750      C1752   1.270       .  A
Al1751     O1759   1.946       .  S
Al1751     O1761   1.869       .  S
Al1751     O1760   1.776       .  S
C1752      O1765   1.265       .  A
C1752      C2253   1.492       .  S
O1753     Al1755   1.934       .  S
O1753      C1763   1.262       .  A
O1754     Al1764   1.956       .  S
O1754      C1767   1.275       .  A
Al1755     O1768   1.892       .  S
Al1755     O1765   1.902       .  S
Al1755     O1760   1.783       .  S
O1756     Al1764   1.868       .  S
O1756      C1763   1.252       .  A
O1757     Al1764   1.855       .  S
O1757      C1766   1.250       .  A
O1758     Al1764   1.951       .  S
O1759      C1766   1.265       .  A
O1760     Al1764   1.778       .  S
C1762      C2301   1.488       .  S
C1763      C2234   1.485       .  S
C1766      C2221   1.474       .  S
C1767      O1768   1.262       .  A
C1767      C2202   1.512       .  S
O1769     Al1777   1.953       .  S
O1769      C1784   1.267       .  A
C1770      O1780   1.273       .  A
C1770      O1771   1.249       .  A
C1770      C2189   1.487       .  S
O1771     Al1773   1.844       .  S
O1772     Al1773   1.946       .  S
O1772      C1774   1.271       .  A
Al1773     O1781   1.938       .  S
Al1773     O1783   1.864       .  S
Al1773     O1782   1.773       .  S
C1774      O1787   1.264       .  A
C1774      C2426   1.486       .  S
O1775     Al1777   1.942       .  S
O1775      C1785   1.265       .  A
O1776     Al1786   1.946       .  S
O1776      C1789   1.272       .  A
Al1777     O1790   1.884       .  S
Al1777     O1787   1.901       .  S
Al1777     O1782   1.784       .  S
O1778     Al1786   1.866       .  S
O1778      C1785   1.249       .  A
O1779     Al1786   1.856       .  S
O1779      C1788   1.249       .  A
O1780     Al1786   1.945       .  S
O1781      C1788   1.262       .  A
O1782     Al1786   1.772       .  S
O1783      C1784   1.256       .  A
C1784      C3010   1.494   1_545  S
C1785      C2218   1.490       .  S
C1788      C2237   1.470       .  S
C1789      O1790   1.262       .  A
C1789      C2285   1.479       .  S
O1791     Al1799   1.941       .  S
O1791      C1806   1.269       .  A
C1792      O1802   1.272       .  A
C1792      O1793   1.251       .  A
C1792      C2186   1.477       .  S
O1793     Al1795   1.845       .  S
O1794     Al1795   1.934       .  S
O1794      C1796   1.268       .  A
Al1795     O1803   1.948       .  S
Al1795     O1805   1.866       .  S
Al1795     O1804   1.774       .  S
C1796      O1809   1.266       .  A
C1796      C2205   1.497       .  S
O1797     Al1799   1.944       .  S
O1797      C1807   1.264       .  A
O1798     Al1808   1.945   1_556  S
O1798      C1811   1.269       .  A
Al1799     O1812   1.900       .  S
Al1799     O1809   1.922       .  S
Al1799     O1804   1.782       .  S
O1800     Al1808   1.854       .  S
O1800      C1807   1.252       .  A
O1801     Al1808   1.865       .  S
O1801      C1810   1.250       .  A
O1802     Al1808   1.952       .  S
O1803      C1810   1.264       .  A
O1804     Al1808   1.773       .  S
O1805      C1806   1.256       .  A
C1806      C2173   1.475       .  S
C1807      C2493   1.483   1_554  S
C1810      C2506   1.476       .  S
C1811      O1812   1.266   1_556  A
C1811      C2413   1.512       .  S
O1813     Al1821   1.927       .  S
O1813      C1828   1.261       .  A
C1814      O1824   1.271       .  A
C1814      O1815   1.248       .  A
C1814      C2154   1.490       .  S
O1815     Al1817   1.845       .  S
O1816     Al1817   1.936       .  S
O1816      C1818   1.269       .  A
Al1817     O1825   1.932       .  S
Al1817     O1827   1.886       .  S
Al1817     O1826   1.776       .  S
C1818      O1831   1.272       .  A
C1818      C2122   1.501       .  S
O1819     Al1821   1.931       .  S
O1819      C1829   1.262       .  A
O1820     Al1830   1.950       .  S
O1820      C1833   1.273       .  A
Al1821     O1834   1.893       .  S
Al1821     O1831   1.921       .  S
Al1821     O1826   1.782       .  S
O1822     Al1830   1.861       .  S
O1822      C1829   1.247       .  A
O1823     Al1830   1.845       .  S
O1823      C1832   1.246       .  A
O1824     Al1830   1.939       .  S
O1825      C1832   1.262       .  A
O1826     Al1830   1.776       .  S
O1827      C1828   1.259       .  A
C1828      C2138   1.488       .  S
C1829      C2381   1.472       .  S
C1832      C2397   1.467       .  S
C1833      O1834   1.265       .  A
C1833      C2442   1.487       .  S
O1835     Al1843   1.946       .  S
O1835      C1850   1.268       .  A
C1836      O1846   1.269       .  A
C1836      O1837   1.250       .  A
C1836      C2157   1.479       .  S
O1837     Al1839   1.854       .  S
O1838     Al1839   1.953       .  S
O1838      C1840   1.273       .  A
Al1839     O1847   1.963       .  S
Al1839     O1849   1.877       .  S
Al1839     O1848   1.777       .  S
C1840      O1853   1.262       .  A
C1840      C2365   1.484       .  S
O1841     Al1843   1.955       .  S
O1841      C1851   1.268       .  A
O1842     Al1852   1.948       .  S
O1842      C1855   1.268       .  A
Al1843     O1856   1.889       .  S
Al1843     O1853   1.889       .  S
Al1843     O1848   1.776       .  S
O1844     Al1852   1.862       .  S
O1844      C1851   1.255       .  A
O1845     Al1852   1.843       .  S
O1845      C1854   1.252       .  A
O1846     Al1852   1.943       .  S
O1847      C1854   1.269       .  A
O1848     Al1852   1.768       .  S
O1849      C1850   1.254       .  A
C1851      C2106   1.495       .  S
C1854      C2090   1.498       .  S
C1855      O1856   1.264       .  A
C1855      C2074   1.503       .  S
O1857     Al1865   1.898       .  S
O1857      C1872   1.259       .  A
C1858      O1868   1.265       .  A
C1858      O1859   1.257       .  A
C1858      C2029   1.466       .  S
O1859     Al1861   1.882       .  S
O1860     Al1861   1.903       .  S
O1860      C1862   1.262       .  A
Al1861     O1869   1.921       .  S
Al1861     O1871   1.869       .  S
Al1861     O1870   1.787       .  S
C1862      O1875   1.270       .  A
C1862      C2269   1.511       .  S
O1863     Al1865   1.904       .  S
O1863      C1873   1.254       .  A
O1864     Al1874   1.895       .  S
O1864      C1877   1.262       .  A
Al1865     O1878   1.948       .  S
Al1865     O1875   1.934       .  S
Al1865     O1870   1.783       .  S
O1866     Al1874   1.891       .  S
O1866      C1873   1.253       .  A
O1867     Al1874   1.889       .  S
O1867      C1876   1.256       .  A
O1868     Al1874   1.913       .  S
O1869      C1876   1.266       .  A
O1870     Al1874   1.784       .  S
O1871      C1872   1.249       .  A
C1873      C2061   1.499       .  S
C1876      C2042   1.487       .  S
C1877      O1878   1.274       .  A
C1877      C1994   1.507       .  S
O1879     Al1887   1.940       .  S
O1879      C1894   1.267       .  A
C1880      O1890   1.271       .  A
C1880      O1881   1.250       .  A
C1880      C2026   1.466       .  S
O1881     Al1883   1.836       .  S
O1882     Al1883   1.939       .  S
O1882      C1884   1.273       .  A
Al1883     O1891   1.959       .  S
Al1883     O1893   1.875       .  S
Al1883     O1892   1.775       .  S
C1884      O1897   1.262       .  A
C1884      C1978   1.491       .  S
O1885     Al1887   1.948       .  S
O1885      C1895   1.264       .  A
O1886     Al1896   1.951       .  S
O1886      C1899   1.272       .  A
Al1887     O1900   1.877       .  S
Al1887     O1897   1.893       .  S
Al1887     O1892   1.778       .  S
O1888     Al1896   1.849       .  S
O1888      C1895   1.247       .  A
O1889     Al1896   1.843       .  S
O1889      C1898   1.249       .  A
O1890     Al1896   1.952       .  S
O1891      C1898   1.266       .  A
O1892     Al1896   1.765       .  S
O1893      C1894   1.257       .  A
C1894      C2853   1.461   1_545  S
C1895      C2330   1.468       .  S
C1898      C2346   1.484       .  S
C1899      O1900   1.261       .  A
C1899      C2250   1.473       .  S
O1901     Al1909   1.917       .  S
O1901      C2756   1.264       .  A
C1902      O1912   1.265       .  A
C1902      O1903   1.255       .  A
C1902      C1962   1.474       .  S
O1903     Al1905   1.877       .  S
O1904     Al1905   1.917       .  S
O1904      C1906   1.267       .  A
Al1905     O1913   1.907       .  S
Al1905     O2755   1.865       .  S
Al1905     O1914   1.783       .  S
C1906      O1919   1.267       .  A
C1906      C1997   1.495       .  S
O1907     Al1909   1.912       .  S
O1907      C1917   1.260       .  A
O1908     Al1918   1.906       .  S
O1908      C1921   1.264       .  A
Al1909     O1922   1.939       .  S
Al1909     O1919   1.931       .  S
Al1909     O1914   1.772       .  S
O1910     Al1918   1.887       .  S
O1910      C1917   1.252       .  A
O1911     Al1918   1.892       .  S
O1911      C1920   1.259       .  A
O1912     Al1918   1.917       .  S
O1913      C1920   1.264       .  A
O1914     Al1918   1.784       .  S
O1915     Al2745   1.864   1_545  S
O1915      C1916   1.249       .  A
C1916      O2741   1.260       .  A
C1916      C1946   1.470       .  S
C1917      C2093   1.478       .  S
C1920      C2949   1.464       .  S
C1921      O1922   1.272       .  A
C1921      C2125   1.510       .  S
O1923     Al1931   1.935       .  S
O1923      C1938   1.262       .  A
C1924      O1934   1.269       .  A
C1924      O1925   1.251       .  A
C1924      C1965   1.485       .  S
O1925     Al1927   1.828       .  S
O1926     Al1927   1.924       .  S
O1926      C1928   1.266       .  A
Al1927     O1935   1.926       .  S
Al1927     O1937   1.874       .  S
Al1927     O1936   1.772       .  S
C1928      O1941   1.271       .  A
C1928      C2077   1.502       .  S
O1929     Al1931   1.927       .  S
O1929      C1939   1.260       .  A
O1930     Al1940   1.942       .  S
O1930      C1943   1.273       .  A
Al1931     O1944   1.876       .  S
Al1931     O1941   1.919       .  S
Al1931     O1936   1.789       .  S
O1932     Al1940   1.867       .  S
O1932      C1939   1.248       .  A
O1933     Al1940   1.866       .  S
O1933      C1942   1.251       .  A
O1934     Al1940   1.943       .  S
O1935      C1942   1.259       .  A
O1936     Al1940   1.778       .  S
O1937      C1938   1.257       .  A
C1938      C1949   1.488       .  S
C1939      C2045   1.479       .  S
C1942      C2058   1.487       .  S
C1943      O1944   1.263       .  A
C1943      C1981   1.473       .  S
C1945      C1946   1.398       .  A
C1945      C1950   1.407       .  A
C1945      H1952   1.083       .  S
C1946      C1947   1.414       .  A
C1947      C1948   1.400       .  A
C1947      C1954   1.519       .  S
C1948      C1949   1.407       .  A
C1948      H1953   1.082       .  S
C1949      C1950   1.427       .  A
C1950      C1951   1.522       .  S
C1951      F1955   1.384       .  S
C1951      F1956   1.383       .  S
C1951      F1957   1.379       .  S
C1954      F2798   1.380       .  S
C1954      F1959   1.380       .  S
C1954      F1960   1.385       .  S
F1958      C2794   1.382       .  S
C1961      C1962   1.410       .  A
C1961      C1966   1.401       .  A
C1961      H1968   1.083       .  S
C1962      C1963   1.408       .  A
C1963      C1964   1.401       .  A
C1963      C1970   1.520       .  S
C1964      C1965   1.417       .  A
C1964      H1969   1.082       .  S
C1965      C1966   1.415       .  A
C1966      C1967   1.520       .  S
C1967      F1971   1.385       .  S
C1967      F1972   1.382       .  S
C1967      F1973   1.383       .  S
C1970      F1974   1.383       .  S
C1970      F1975   1.383       .  S
C1970      F1976   1.385       .  S
C1977      C1978   1.407       .  A
C1977      C1982   1.401       .  A
C1977      H1984   1.082       .  S
C1978      C1979   1.427       .  A
C1979      C1980   1.411       .  A
C1979      C1986   1.521       .  S
C1980      C1981   1.399       .  A
C1980      H1985   1.083       .  S
C1981      C1982   1.414       .  A
C1982      C1983   1.521       .  S
C1983      F1987   1.385       .  S
C1983      F1988   1.382       .  S
C1983      F1989   1.383       .  S
C1986      F1990   1.383       .  S
C1986      F1991   1.382       .  S
C1986      F1992   1.385       .  S
C1993      C1994   1.408       .  A
C1994      C1995   1.431   1_655  A
C1995      C1996   1.414       .  A
C1995      C2002   1.521       .  S
C1996      H2001   1.083       .  S
C1997      C1998   1.421       .  A
C1998      C1999   1.521       .  S
C1999      F2003   1.385       .  S
C1999      F2004   1.383       .  S
C1999      F2005   1.382       .  S
C2002      F2006   1.383       .  S
C2002      F2007   1.383   1_455  S
C2002      F2008   1.384       .  S
C2009      C2010   1.404       .  A
C2009      C2854   1.403       .  A
C2009      H2016   1.082       .  S
C2010      C2011   1.435       .  A
C2011      C2012   1.405       .  A
C2012      C2013   1.391       .  A
C2012      H2017   1.083       .  S
C2013      C2734   1.469       .  S
C2013      C2854   1.416       .  A
C2014      C2849   1.400       .  A
C2014      C2853   1.401       .  A
C2014      C2015   1.519       .  S
C2015      F2019   1.384       .  S
C2015      F2020   1.382       .  S
C2015      F2021   1.383       .  S
C2018      F2022   1.380       .  S
C2018      F2023   1.382       .  S
C2018      F2024   1.385       .  S
C2025      C2026   1.407       .  A
C2025      C2030   1.403       .  A
C2025      H2032   1.084       .  S
C2026      C2027   1.409       .  A
C2027      C2028   1.402       .  A
C2027      C2034   1.517       .  S
C2028      C2029   1.407       .  A
C2028      H2033   1.084       .  S
C2029      C2030   1.413       .  A
C2030      C2031   1.521       .  S
C2031      F2035   1.385       .  S
C2031      F2036   1.383       .  S
C2031      F2037   1.383       .  S
C2034      F2038   1.383       .  S
C2034      F2039   1.384       .  S
C2034      F2040   1.384       .  S
C2041      C2046   1.407       .  A
C2041      H2048   1.083       .  S
C2042      C2043   1.427       .  A
C2043      C2044   1.402       .  A
C2043      C2050   1.521       .  S
C2044      H2049   1.084       .  S
C2045      C2046   1.421       .  A
C2046      C2047   1.519       .  S
C2047      F2051   1.385       .  S
C2047      F2052   1.384       .  S
C2047      F2053   1.381       .  S
C2050      F2054   1.384       .  S
C2050      F2055   1.383       .  S
C2050      F2056   1.385       .  S
C2057      C2058   1.407       .  A
C2057      C2062   1.407       .  A
C2057      H2064   1.083       .  S
C2058      C2059   1.414       .  A
C2059      C2060   1.408       .  A
C2059      C2066   1.519       .  S
C2060      C2061   1.414       .  A
C2060      H2065   1.082       .  S
C2061      C2062   1.423       .  A
C2062      C2063   1.522       .  S
C2063      F2067   1.385       .  S
C2063      F2068   1.383       .  S
C2063      F2069   1.384       .  S
C2066      F2070   1.382       .  S
C2066      F2071   1.383       .  S
C2066      F2072   1.384       .  S
C2073      C2074   1.404   1_455  A
C2073      H2080   1.080       .  S
C2074      C2075   1.423       .  A
C2075      C2076   1.417       .  A
C2075      C2082   1.519       .  S
C2076      H2081   1.082       .  S
C2077      C2078   1.430       .  A
C2078      C2079   1.527       .  S
C2079      F2083   1.385       .  S
C2079      F2084   1.383       .  S
C2079      F2085   1.383       .  S
C2082      F2086   1.383       .  S
C2082      F2087   1.383       .  S
C2082      F2088   1.385       .  S
C2089      C2094   1.402       .  A
C2089      H2096   1.081       .  S
C2090      C2091   1.421   1_655  A
C2091      C2092   1.412       .  A
C2091      C2098   1.518       .  S
C2092      H2097   1.083       .  S
C2093      C2094   1.411       .  A
C2094      C2095   1.524       .  S
C2095      F2099   1.382       .  S
C2095      F2100   1.385       .  S
C2095      F2101   1.383       .  S
C2098      F2102   1.383       .  S
C2098      F2103   1.381   1_455  S
C2098      F2104   1.385       .  S
C2105      C2106   1.409       .  A
C2105      C2110   1.400       .  A
C2105      H2112   1.084       .  S
C2106      C2947   1.421       .  A
C2107      C2946   1.423       .  A
C2107      C2108   1.407       .  A
C2107      C2114   1.519       .  S
C2108      C2949   1.403       .  A
C2108      H2113   1.084       .  S
C2109      C2760   1.472       .  S
C2109      C2948   1.406       .  A
C2109      C2110   1.415       .  A
C2110      C2111   1.521       .  S
C2111      F2115   1.383       .  S
C2111      F2116   1.378       .  S
C2111      F2117   1.383       .  S
C2114      F2118   1.380       .  S
C2114      F2959   1.376       .  S
C2114      F2120   1.385       .  S
F2119      C2954   1.383       .  S
C2121      C2122   1.409       .  A
C2121      C2966   1.415       .  A
C2121      H2128   1.083       .  S
C2122      C2123   1.427       .  A
C2123      C2124   1.408       .  A
C2123      C2130   1.523       .  S
C2124      C2965   1.402       .  A
C2124      H2129   1.083       .  S
C2125      C2964   1.410       .  A
C2125      C2126   1.431       .  A
C2126      C2961   1.417       .  A
C2126      C2127   1.521       .  S
C2127      F2131   1.385       .  S
C2127      F2132   1.383       .  S
C2127      F2133   1.384       .  S
C2130      F2134   1.383       .  S
C2130      F2135   1.382       .  S
C2130      F2136   1.385       .  S
C2137      C2138   1.411       .  A
C2137      C2142   1.401       .  A
C2137      H2144   1.084       .  S
C2138      C2139   1.425       .  A
C2139      C2146   1.522       .  S
C2140      H2145   1.082   1_455  S
C2141      C2142   1.412       .  A
C2142      C2143   1.520       .  S
C2143      F2147   1.384       .  S
C2143      F2148   1.383       .  S
C2143      F2149   1.381       .  S
C2146      F2150   1.385       .  S
C2146      F2151   1.381       .  S
C2153      C2154   1.403       .  A
C2153      C2158   1.402       .  A
C2153      H2160   1.083       .  S
C2154      C2155   1.433       .  A
C2155      C2156   1.403       .  A
C2155      C2162   1.525       .  S
C2156      C2157   1.397       .  A
C2156      H2161   1.083       .  S
C2157      C2158   1.422       .  A
C2158      C2159   1.521       .  S
C2159      F2163   1.385       .  S
C2159      F2164   1.382       .  S
C2159      F2165   1.382       .  S
C2162      F2166   1.384       .  S
C2162      F2167   1.383       .  S
C2162      F2168   1.385       .  S
C2169      C2170   1.412       .  A
C2169      C2174   1.399       .  A
C2169      H2176   1.082       .  S
C2170      C2624   1.493       .  S
C2170      C2171   1.421       .  A
C2171      C2172   1.409       .  A
C2171      C3018   1.519       .  S
C2172      C2173   1.405       .  A
C2172      H2177   1.083       .  S
C2173      C2174   1.414       .  A
C2174      C2175   1.523       .  S
C2175      F2179   1.385       .  S
C2175      F2180   1.382       .  S
C2175      F2181   1.384       .  S
C2178      C3011   1.521   1_545  S
C2178      F2182   1.384       .  S
C2178      F2183   1.383       .  S
C2178      F2184   1.385   1_545  S
C2185      C2186   1.397       .  A
C2185      C2190   1.405       .  A
C2185      H2192   1.083       .  S
C2186      C2187   1.424       .  A
C2187      C2188   1.400       .  A
C2187      C2194   1.522       .  S
C2188      C2189   1.400       .  A
C2188      H2193   1.082       .  S
C2189      C2190   1.432       .  A
C2190      C2191   1.523       .  S
C2191      F2195   1.385       .  S
C2191      F2196   1.384       .  S
C2191      F2197   1.383       .  S
C2194      F2198   1.383       .  S
C2194      F2199   1.383       .  S
C2194      F2200   1.385       .  S
C2201      C2202   1.413       .  A
C2201      H2208   1.082       .  S
C2203      C2204   1.410       .  A
C2203      C2210   1.524       .  S
C2204      C2205   1.403       .  A
C2204      H2209   1.083       .  S
C2205      C2206   1.418       .  A
C2206      C2207   1.519       .  S
C2207      F2212   1.382       .  S
C2210      F2214   1.383       .  S
C2210      F2216   1.385       .  S
C2217      C2222   1.411       .  A
C2217      H2224   1.083       .  S
C2218      C2219   1.428       .  A
C2219      C2220   1.405       .  A
C2219      C2226   1.524       .  S
C2220      H2225   1.084       .  S
C2221      C2222   1.413       .  A
C2222      C2223   1.516       .  S
C2223      F2227   1.384       .  S
C2223      F2228   1.383       .  S
C2223      F2229   1.383       .  S
C2226      F2230   1.382       .  S
C2226      F2231   1.382       .  S
C2226      F2232   1.385       .  S
C2233      C2234   1.413       .  A
C2233      C3078   1.408       .  A
C2233      H2240   1.083       .  S
C2234      C3075   1.419       .  A
C2235      C3074   1.422       .  A
C2235      C2236   1.406   1_565  A
C2235      C2242   1.521   1_565  S
C2236      C2237   1.402       .  A
C2236      H2241   1.084       .  S
C2237      C2238   1.407   1_545  A
C2238      C3073   1.406       .  A
C2238      C3079   1.517       .  S
C2239      C3078   1.517       .  S
C2239      F2243   1.384       .  S
C2239      F2244   1.384       .  S
C2239      F3085   1.382       .  S
C2242      F2246   1.383       .  S
C2242      F2247   1.383       .  S
C2242      F2248   1.385       .  S
F2245      C3079   1.382       .  S
C2249      C2250   1.398   1_565  A
C2249      C3094   1.407       .  A
C2249      H2256   1.084       .  S
C2250      C2251   1.410       .  A
C2251      C2252   1.410       .  A
C2251      C2258   1.515       .  S
C2252      C3093   1.410   1_545  A
C2252      H2257   1.083       .  S
C2253      C3092   1.409       .  A
C2253      C2254   1.421       .  A
C2254      C3089   1.408       .  A
C2254      C2255   1.517       .  S
C2255      F2259   1.385       .  S
C2255      F2260   1.383       .  S
C2255      F2261   1.381       .  S
C2258      F2262   1.383       .  S
C2258      F2263   1.383       .  S
C2258      F2264   1.384       .  S
C2265      C2266   1.400       .  A
C2265      C2270   1.413       .  A
C2265      H2272   1.076       .  S
C2266      C2267   1.412       .  A
C2267      C2268   1.413       .  A
C2267      C2274   1.518       .  S
C2268      C2269   1.414       .  A
C2268      H2273   1.079       .  S
C2269      C2270   1.431       .  A
C2270      C2271   1.523       .  S
C2271      F2275   1.385       .  S
C2271      F2276   1.383       .  S
C2271      F2277   1.383       .  S
C2274      F2278   1.384       .  S
C2274      F3119   1.382       .  S
C2274      F2280   1.384       .  S
F2279      C3114   1.383       .  S
C2281      C3122   1.411   1_545  A
C2281      C2286   1.411       .  A
C2281      H3128   1.083       .  S
C2282      C3121   1.407       .  A
C2282      C3123   1.420       .  A
C2283      C3122   1.427       .  A
C2283      C2284   1.410       .  A
C2283      C2290   1.517       .  S
C2284      C2285   1.399   1_565  A
C2284      H2289   1.084       .  S
C2285      C2286   1.412       .  A
C2286      C2287   1.518       .  S
C2287      F2291   1.384       .  S
C2287      F2292   1.383       .  S
C2287      F2293   1.382       .  S
H2288      C3121   1.084       .  S
C2290      F2294   1.383       .  S
C2290      F3135   1.382       .  S
C2290      F2296   1.385       .  S
F2295      C3130   1.378       .  S
C2297      C2298   1.397       .  A
C2297      C2302   1.406       .  A
C2297      H2304   1.084       .  S
C2298      C2299   1.407       .  A
C2299      C2300   1.399       .  A
C2299      C2306   1.518       .  S
C2300      C2301   1.410       .  A
C2300      H2305   1.082       .  S
C2301      C2302   1.428       .  A
C2302      C2303   1.521       .  S
C2303      F2307   1.385       .  S
C2303      F2308   1.383       .  S
C2303      F2309   1.383   1_655  S
C2306      F2310   1.381       .  S
C2306      F2311   1.384       .  S
C2306      F2312   1.385       .  S
C2313      C2314   1.413       .  A
C2313      C2318   1.404       .  A
C2313      H2320   1.082       .  S
C2314      C2315   1.413       .  A
C2315      C2316   1.405       .  A
C2315      C2322   1.519       .  S
C2316      C2317   1.412       .  A
C2316      H2321   1.081       .  S
C2317      C2318   1.414       .  A
C2318      C2319   1.520       .  S
C2319      F2323   1.385       .  S
C2319      F2324   1.382       .  S
C2319      F2325   1.383       .  S
C2322      F2326   1.382       .  S
C2322      F2327   1.383       .  S
C2322      F2328   1.385       .  S
C2329      C2330   1.406       .  A
C2329      C2334   1.411       .  A
C2329      H2336   1.078       .  S
C2330      C2331   1.416       .  A
C2331      C2332   1.397       .  A
C2331      C2338   1.523       .  S
C2332      C2333   1.399       .  A
C2332      H2337   1.072       .  S
C2333      C2334   1.411       .  A
C2334      C2335   1.515       .  S
C2335      F2339   1.384       .  S
C2335      F2340   1.383       .  S
C2335      F2341   1.383       .  S
C2338      F2342   1.381       .  S
C2338      F2343   1.383       .  S
C2338      F2344   1.385       .  S
C2345      C2346   1.407       .  A
C2345      C2350   1.402       .  A
C2345      H2352   1.083       .  S
C2346      C3187   1.411   1_545  A
C2347      C3186   1.408       .  A
C2347      C2348   1.407       .  A
C2347      C2354   1.518       .  S
C2348      C3189   1.412       .  A
C2348      H2353   1.082       .  S
C2349      C2581   1.490       .  S
C2349      C3188   1.414       .  A
C2349      C2350   1.420   1_565  A
C2350      C2351   1.524       .  S
C2351      F2355   1.385       .  S
C2351      F2356   1.384   1_545  S
C2351      F2357   1.383       .  S
C2354      F2358   1.382       .  S
C2354      F2359   1.382       .  S
C2354      F2360   1.385       .  S
C2361      C3202   1.404       .  A
C2361      C2366   1.409       .  A
C2361      H2368   1.083   1_545  S
C2362      C3201   1.399       .  A
C2362      C2363   1.416       .  A
C2363      C3204   1.406       .  A
C2363      C2370   1.520       .  S
C2364      C3203   1.410       .  A
C2364      C2365   1.402       .  A
C2364      H2369   1.083       .  S
C2365      C2366   1.419       .  A
C2366      C2367   1.519       .  S
C2367      F2371   1.385   1_545  S
C2367      F2372   1.381       .  S
C2367      F2373   1.382       .  S
C2370      F2374   1.379       .  S
C2370      F2375   1.383       .  S
C2370      F2376   1.385       .  S
C2377      C2378   1.405       .  A
C2377      C2382   1.409       .  A
C2377      H2384   1.083       .  S
C2378      C2562   1.496       .  S
C2378      C3219   1.441       .  A
C2379      C3218   1.434       .  A
C2379      C3220   1.400       .  A
C2379      C2386   1.524       .  S
C2380      C3219   1.401       .  A
C2380      C2381   1.388       .  A
C2380      H2385   1.083       .  S
C2381      C2382   1.418       .  A
C2382      C2383   1.519       .  S
C2383      F2387   1.385       .  S
C2383      F2388   1.383       .  S
C2383      F2389   1.382       .  S
C2386      F2390   1.379       .  S
C2386      F2391   1.383       .  S
C2386      F2392   1.385       .  S
C2393      C2394   1.396       .  A
C2393      C2398   1.398       .  A
C2393      H2400   1.084       .  S
C2394      C2395   1.426       .  A
C2395      C2396   1.405       .  A
C2395      C2402   1.519       .  S
C2396      C2397   1.396       .  A
C2396      H2401   1.083       .  S
C2397      C2398   1.420       .  A
C2398      C2399   1.518       .  S
C2399      F2403   1.385       .  S
C2399      F2404   1.382       .  S
C2399      F2405   1.382       .  S
C2402      F2406   1.383       .  S
C2402      F2407   1.382       .  S
C2402      F2408   1.385       .  S
C2409      C2410   1.407       .  A
C2409      C2414   1.416       .  A
C2409      H2416   1.083       .  S
C2410      C2411   1.422       .  A
C2411      C2412   1.411       .  A
C2411      C2418   1.522       .  S
C2412      C2413   1.410       .  A
C2412      H2417   1.082       .  S
C2413      C2414   1.428       .  A
C2414      C2415   1.520       .  S
C2415      F2419   1.385       .  S
C2415      F2420   1.383       .  S
C2415      F2421   1.383       .  S
C2418      F2422   1.383       .  S
C2418      F2423   1.382       .  S
C2418      F2424   1.385       .  S
C2425      C2426   1.400       .  A
C2425      C2430   1.409       .  A
C2425      H2432   1.083       .  S
C2427      C2428   1.407       .  A
C2427      C2434   1.518       .  S
C2428      C2429   1.409       .  A
C2428      H2433   1.082       .  S
C2430      C2431   1.523       .  S
C2431      F2435   1.385       .  S
C2431      F2436   1.384   1_655  S
C2431      F2437   1.383       .  S
C2434      F2438   1.383       .  S
C2434      F2439   1.383       .  S
C2434      F2440   1.384       .  S
C2441      C2442   1.402       .  A
C2441      C2446   1.416       .  A
C2441      H2448   1.083       .  S
C2442      C2443   1.416       .  A
C2443      C2444   1.405       .  A
C2443      C2450   1.520       .  S
C2444      C2445   1.409       .  A
C2444      H2449   1.082       .  S
C2445      C2446   1.430       .  A
C2446      C2447   1.520       .  S
C2447      F2451   1.385       .  S
C2447      F2452   1.383       .  S
C2447      F2453   1.383       .  S
C2450      F2454   1.378       .  S
C2450      F2455   1.383       .  S
C2450      F2456   1.385       .  S
C2457      C2458   1.401       .  A
C2457      C2462   1.407       .  A
C2457      H2464   1.083       .  S
C2458      C2459   1.416       .  A
C2459      C2460   1.408       .  A
C2459      C2466   1.520       .  S
C2460      C2461   1.407       .  A
C2461      C2462   1.429       .  A
C2462      C2463   1.523       .  S
C2463      F2467   1.385       .  S
C2463      F2468   1.383       .  S
C2463      F2469   1.383       .  S
C2466      F2470   1.383       .  S
C2466      F3311   1.381   1_545  S
F2471      C3306   1.383       .  S
C2473      C2474   1.404       .  A
C2473      C2478   1.408       .  A
C2473      H2480   1.084       .  S
C2474      C2475   1.411       .  A
C2475      C2476   1.402       .  A
C2475      C2482   1.517       .  S
C2476      C2477   1.407       .  A
C2476      H2481   1.084       .  S
C2477      C2478   1.415       .  A
C2478      C2479   1.513       .  S
C2479      F2483   1.385       .  S
C2479      F2484   1.382       .  S
C2479      F2485   1.384       .  S
C2482      F2486   1.384       .  S
C2482      F2487   1.380       .  S
C2482      F2488   1.385       .  S
C2489      C2490   1.405       .  A
C2489      C2494   1.414       .  A
C2489      H2496   1.083   1_655  S
C2490      C2491   1.417       .  A
C2491      C2492   1.395   1_556  A
C2491      C2498   1.520   1_556  S
C2492      C2493   1.402   1_554  A
C2492      H2497   1.085       .  S
C2493      C2494   1.419       .  A
C2494      C2495   1.516       .  S
C2495      F2499   1.385       .  S
C2495      F2500   1.382       .  S
C2495      F2501   1.383       .  S
C2498      F2503   1.381   1_554  S
C2498      F2504   1.384       .  S
C2505      C2506   1.399       .  A
C2505      C2510   1.408       .  A
C2505      H2512   1.083       .  S
C2506      C2507   1.421       .  A
C2507      C2508   1.401       .  A
C2507      C2514   1.518       .  S
C2508      C2509   1.397       .  A
C2508      H2513   1.083   1_554  S
C2509      C2510   1.424       .  A
C2510      C2511   1.520       .  S
C2511      F2515   1.385       .  S
C2511      F2516   1.384       .  S
C2511      F2517   1.380       .  S
C2514      F2518   1.382       .  S
C2514      F2519   1.381   1_554  S
C2514      F2520   1.385       .  S
O2521     Al2529   1.945       .  S
C2522      O2532   1.268       .  A
C2522      O2523   1.250       .  A
C2522      C3314   1.463       .  S
O2523     Al2525   1.838       .  S
O2524     Al2525   1.949       .  S
O2524      C2526   1.272       .  A
Al2525     O2533   1.933       .  S
Al2525     O2534   1.784       .  S
C2526      O2539   1.264       .  A
C2526      C3285   1.500       .  S
O2527     Al2529   1.943       .  S
O2527      C2537   1.264   1_556  A
O2528     Al2538   1.948   1_554  S
O2528      C2541   1.273       .  A
Al2529     O2542   1.889       .  S
Al2529     O2539   1.904       .  S
Al2529     O2534   1.781       .  S
O2530     Al2538   1.861       .  S
O2530      C2537   1.248   1_556  A
O2531     Al2538   1.851       .  S
O2531      C2540   1.249       .  A
O2532     Al2538   1.943       .  S
O2533      C2540   1.262       .  A
O2534     Al2538   1.785       .  S
O2535      C2536   1.254       .  A
C2536      C3301   1.474       .  S
C2537      C3349   1.480       .  S
C2541      O2542   1.261   1_554  A
C2541      C3269   1.504       .  S
O2543     Al2551   1.913   1_545  S
C2544      O2554   1.273       .  A
C2544      O2545   1.266       .  A
C2544      C3317   1.462       .  S
O2545     Al2547   1.903       .  S
O2546     Al2547   1.921       .  S
O2546      C2548   1.267       .  A
Al2547     O2555   1.956   1_565  S
Al2547     O2556   1.779       .  S
C2548      O2561   1.265       .  A
C2548      C3250   1.495       .  S
O2549     Al2551   1.926       .  S
O2549      C2559   1.256       .  A
O2550     Al2560   1.911       .  S
O2550      C2563   1.274       .  A
Al2551     O2564   1.942       .  S
Al2551     O2561   1.904       .  S
Al2551     O2556   1.780       .  S
O2552     Al2560   1.859       .  S
O2552      C2559   1.237       .  A
O2553     Al2560   1.868       .  S
O2553      C2562   1.240   1_565  A
O2554     Al2560   1.915       .  S
O2555      C2562   1.266       .  A
O2556     Al2560   1.779       .  S
O2557      C2558   1.260       .  A
C2558      C3298   1.487       .  S
C2559      C3234   1.489       .  S
C2563      O2564   1.279       .  A
C2563      C3202   1.489   1_565  S
O2565     Al2573   1.899       .  S
O2565      C2580   1.254       .  A
C2566      O2576   1.265       .  A
C2566      O2567   1.255       .  A
C2566      C3157   1.486       .  S
O2567     Al2569   1.880       .  S
O2568     Al2569   1.906       .  S
O2568      C2570   1.266       .  A
Al2569     O2577   1.906       .  S
Al2569     O2579   1.861       .  S
Al2569     O2578   1.790       .  S
C2570      O2583   1.272       .  A
C2570      C3122   1.502       .  S
O2571     Al2573   1.892       .  S
O2571      C2581   1.254       .  A
O2572     Al2582   1.908       .  S
O2572      C2585   1.264       .  A
Al2573     O2586   1.926       .  S
Al2573     O2583   1.933       .  S
Al2573     O2578   1.788       .  S
O2574     Al2582   1.887       .  S
O2574      C2581   1.253       .  A
O2575     Al2582   1.889       .  S
O2575      C2584   1.257       .  A
O2576     Al2582   1.921       .  S
O2577      C2584   1.263       .  A
O2578     Al2582   1.790       .  S
O2579      C2580   1.246       .  A
C2580      C3138   1.461       .  S
C2584      C3173   1.457       .  S
C2585      O2586   1.267       .  A
C2585      C3106   1.484       .  S
O2587     Al2595   1.927       .  S
C2588      O2598   1.269       .  A
C2588      O2589   1.251       .  A
C2588      C3154   1.489       .  S
O2589     Al2591   1.834       .  S
O2590     Al2591   1.947       .  S
O2590      C2592   1.271       .  A
Al2591     O2599   1.940       .  S
Al2591     O2601   1.869       .  S
Al2591     O2600   1.778       .  S
C2592      O2605   1.266       .  A
C2592      C3093   1.494       .  S
O2593     Al2595   1.934       .  S
O2593      C2603   1.261       .  A
O2594     Al2604   1.961       .  S
O2594      C2607   1.276       .  A
Al2595     O2608   1.890       .  S
Al2595     O2605   1.903       .  S
Al2595     O2600   1.780       .  S
O2596     Al2604   1.870       .  S
O2596      C2603   1.253       .  A
O2597     Al2604   1.844       .  S
O2597      C2606   1.250       .  A
O2598     Al2604   1.951       .  S
O2599      C2606   1.263       .  A
O2600     Al2604   1.775       .  S
C2602      C3141   1.486       .  S
C2603      C3074   1.492       .  S
C2606      C3061   1.469       .  S
C2607      O2608   1.261       .  A
C2607      C3042   1.512       .  S
O2609     Al2617   1.960       .  S
O2609      C2624   1.270       .  A
C2610      O2620   1.275       .  A
C2610      O2611   1.251       .  A
C2610      C3029   1.488       .  S
O2611     Al2613   1.849       .  S
O2612     Al2613   1.946       .  S
O2612      C2614   1.270       .  A
Al2613     O2621   1.945       .  S
Al2613     O2623   1.861       .  S
Al2613     O2622   1.772       .  S
C2614      O2627   1.263       .  A
C2614      C3266   1.485       .  S
O2615     Al2617   1.956       .  S
O2615      C2625   1.269       .  A
O2616     Al2626   1.945       .  S
O2616      C2629   1.271       .  A
Al2617     O2630   1.885       .  S
Al2617     O2627   1.901       .  S
Al2617     O2622   1.778       .  S
O2618     Al2626   1.854       .  S
O2618      C2625   1.249       .  A
O2619     Al2626   1.851       .  S
O2619      C2628   1.248       .  A
O2620     Al2626   1.955       .  S
O2621      C2628   1.263       .  A
O2622     Al2626   1.766       .  S
O2623      C2624   1.257       .  A
C2625      C3058   1.488       .  S
C2628      C3077   1.470       .  S
C2629      O2630   1.261       .  A
C2629      C3125   1.484       .  S
O2631     Al2639   1.940       .  S
O2631      C2646   1.267       .  A
C2632      O2642   1.270       .  A
C2632      O2633   1.249       .  A
C2632      C3026   1.483       .  S
O2633     Al2635   1.849       .  S
O2634     Al2635   1.939       .  S
O2634      C2636   1.271       .  A
Al2635     O2643   1.955       .  S
Al2635     O2645   1.874       .  S
Al2635     O2644   1.772       .  S
C2636      O2649   1.265       .  A
C2636      C3045   1.482       .  S
O2637     Al2639   1.949       .  S
O2637      C2647   1.264       .  A
O2638     Al2648   1.947   1_556  S
O2638      C2651   1.271       .  A
Al2639     O2652   1.893       .  S
Al2639     O2649   1.905       .  S
Al2639     O2644   1.784       .  S
O2640     Al2648   1.851       .  S
O2640      C2647   1.252       .  A
O2641     Al2648   1.857       .  S
O2641      C2650   1.249       .  A
O2642     Al2648   1.947       .  S
O2643      C2650   1.267       .  A
O2644     Al2648   1.769       .  S
O2645      C2646   1.257       .  A
C2646      C3013   1.485       .  S
C2647      C3333   1.488   1_554  S
C2650      C3346   1.481       .  S
C2651      O2652   1.265   1_556  A
C2651      C3253   1.503       .  S
O2653     Al2661   1.927       .  S
O2653      C2668   1.262       .  A
C2654      O2664   1.271       .  A
C2654      O2655   1.249       .  A
C2654      C2994   1.485       .  S
O2655     Al2657   1.844       .  S
O2656     Al2657   1.944       .  S
O2656      C2658   1.270       .  A
Al2657     O2665   1.935       .  S
Al2657     O2667   1.881       .  S
Al2657     O2666   1.778       .  S
C2658      O2671   1.268       .  A
C2658      C2962   1.489       .  S
O2659     Al2661   1.932       .  S
O2659      C2669   1.262       .  A
O2660     Al2670   1.952       .  S
O2660      C2673   1.273       .  A
Al2661     O2674   1.898       .  S
Al2661     O2671   1.920       .  S
Al2661     O2666   1.781       .  S
O2662     Al2670   1.863       .  S
O2662      C2669   1.248       .  A
O2663     Al2670   1.839       .  S
O2663      C2672   1.246       .  A
O2664     Al2670   1.937       .  S
O2665      C2672   1.262       .  A
O2666     Al2670   1.778       .  S
O2667      C2668   1.257       .  A
C2668      C2978   1.480       .  S
C2669      C3221   1.472       .  S
C2672      C3237   1.463       .  S
C2673      O2674   1.264       .  A
C2673      C3282   1.484       .  S
O2675     Al2683   1.939       .  S
O2675      C2690   1.268       .  A
C2676      O2686   1.268       .  A
C2676      O2677   1.250       .  A
C2676      C2997   1.477       .  S
O2677     Al2679   1.854       .  S
O2678     Al2679   1.950       .  S
O2678      C2680   1.275       .  A
Al2679     O2687   1.964       .  S
Al2679     O2689   1.868       .  S
Al2679     O2688   1.772       .  S
C2680      O2693   1.265       .  A
C2680      C3205   1.505       .  S
O2681     Al2683   1.954       .  S
O2681      C2691   1.266       .  A
O2682     Al2692   1.936       .  S
O2682      C2695   1.268       .  A
Al2683     O2696   1.899       .  S
Al2683     O2693   1.904       .  S
Al2683     O2688   1.778       .  S
O2684     Al2692   1.858       .  S
O2684      C2691   1.255       .  A
O2685     Al2692   1.840       .  S
O2685      C2694   1.251       .  A
O2686     Al2692   1.934       .  S
O2687      C2694   1.268       .  A
O2688     Al2692   1.761       .  S
O2689      C2690   1.253       .  A
C2691      C2946   1.495       .  S
C2694      C2930   1.498       .  S
C2695      O2696   1.264       .  A
C2695      C2914   1.476       .  S
O2697     Al2705   1.910       .  S
O2697      C2712   1.258       .  A
C2698      O2708   1.265       .  A
C2698      O2699   1.257       .  A
C2698      C2869   1.473       .  S
O2699     Al2701   1.882       .  S
O2700     Al2701   1.903       .  S
O2700      C2702   1.262       .  A
Al2701     O2709   1.918       .  S
Al2701     O2711   1.869       .  S
Al2701     O2710   1.786       .  S
C2702      O2715   1.271       .  A
C2702      C3109   1.510       .  S
O2703     Al2705   1.905       .  S
O2703      C2713   1.255       .  A
O2704     Al2714   1.905       .  S
O2704      C2717   1.264       .  A
Al2705     O2718   1.945       .  S
Al2705     O2715   1.940       .  S
Al2705     O2710   1.781       .  S
O2706     Al2714   1.893       .  S
O2706      C2713   1.253       .  A
O2707     Al2714   1.885       .  S
O2707      C2716   1.255       .  A
O2708     Al2714   1.914       .  S
O2709      C2716   1.266       .  A
O2710     Al2714   1.788       .  S
O2711      C2712   1.252       .  A
C2713      C2901   1.502       .  S
C2716      C2882   1.482       .  S
C2717      O2718   1.275       .  A
C2717      C2834   1.512       .  S
O2719     Al2727   1.940       .  S
O2719      C2734   1.263       .  A
C2720      O2730   1.264       .  A
C2720      O2721   1.247       .  A
C2720      C2866   1.470       .  S
O2721     Al2723   1.832       .  S
O2722     Al2723   1.934       .  S
O2722      C2724   1.271       .  A
Al2723     O2731   1.938       .  S
Al2723     O2733   1.874       .  S
Al2723     O2732   1.778       .  S
C2724      O2737   1.264       .  A
C2724      C2818   1.496       .  S
O2725     Al2727   1.935       .  S
O2725      C2735   1.261       .  A
O2726     Al2736   1.943       .  S
O2726      C2739   1.271       .  A
Al2727     O2740   1.899       .  S
Al2727     O2737   1.904       .  S
Al2727     O2732   1.791       .  S
O2728     Al2736   1.849       .  S
O2728      C2735   1.246       .  A
O2729     Al2736   1.852       .  S
O2729      C2738   1.250       .  A
O2730     Al2736   1.934       .  S
O2731      C2738   1.264       .  A
O2732     Al2736   1.782       .  S
O2733      C2734   1.253       .  A
C2735      C3170   1.468       .  S
C2738      C3186   1.470       .  S
C2739      O2740   1.266       .  A
C2739      C3090   1.479       .  S
O2741     Al2749   1.914   1_545  S
C2742      O2752   1.267       .  A
C2742      O2743   1.257       .  A
C2742      C2802   1.469       .  S
O2743     Al2745   1.880       .  S
O2744     Al2745   1.926       .  S
O2744      C2746   1.267       .  A
Al2745     O2753   1.925   1_565  S
Al2745     O2754   1.784       .  S
C2746      O2759   1.266       .  A
C2746      C2837   1.500       .  S
O2747     Al2749   1.909       .  S
O2747      C2757   1.258       .  A
O2748     Al2758   1.908       .  S
O2748      C2761   1.267       .  A
Al2749     O2762   1.928       .  S
Al2749     O2759   1.928       .  S
Al2749     O2754   1.783       .  S
O2750     Al2758   1.882       .  S
O2750      C2757   1.250       .  A
O2751     Al2758   1.894       .  S
O2751      C2760   1.255   1_565  A
O2752     Al2758   1.915       .  S
O2753      C2760   1.265       .  A
O2754     Al2758   1.794       .  S
O2755      C2756   1.249       .  A
C2756      C2786   1.478       .  S
C2757      C2933   1.482       .  S
C2761      O2762   1.271       .  A
C2761      C2965   1.492   1_565  S
O2763     Al2771   1.933       .  S
O2763      C2778   1.260       .  A
C2764      O2774   1.266       .  A
C2764      O2765   1.250       .  A
C2764      C2805   1.479       .  S
O2765     Al2767   1.833       .  S
O2766     Al2767   1.935       .  S
O2766      C2768   1.270       .  A
Al2767     O2775   1.932       .  S
Al2767     O2777   1.874       .  S
Al2767     O2776   1.782       .  S
C2768      O2781   1.268       .  A
C2768      C2917   1.486       .  S
O2769     Al2771   1.933       .  S
O2769      C2779   1.261       .  A
O2770     Al2780   1.943       .  S
O2770      C2783   1.272       .  A
Al2771     O2784   1.899       .  S
Al2771     O2781   1.908       .  S
Al2771     O2776   1.792       .  S
O2772     Al2780   1.867       .  S
O2772      C2779   1.248       .  A
O2773     Al2780   1.858       .  S
O2773      C2782   1.252       .  A
O2774     Al2780   1.938       .  S
O2775      C2782   1.261       .  A
O2776     Al2780   1.783       .  S
O2777      C2778   1.253       .  A
C2778      C2789   1.475       .  S
C2779      C2885   1.484       .  S
C2782      C2898   1.483       .  S
C2783      O2784   1.267       .  A
C2783      C2821   1.481       .  S
C2785      C2786   1.400       .  A
C2785      C2790   1.404       .  A
C2785      H2792   1.083       .  S
C2786      C2787   1.425       .  A
C2787      C2788   1.401       .  A
C2787      C2794   1.522       .  S
C2788      C2789   1.398       .  A
C2788      H2793   1.082       .  S
C2789      C2790   1.420       .  A
C2790      C2791   1.516       .  S
C2791      F2795   1.385       .  S
C2791      F2796   1.381       .  S
C2791      F2797   1.379       .  S
C2794      F2799   1.380       .  S
C2794      F2800   1.385       .  S
C2801      C2802   1.407       .  A
C2801      C2806   1.403       .  A
C2801      H2808   1.083       .  S
C2802      C2803   1.407       .  A
C2803      C2804   1.401       .  A
C2803      C2810   1.518       .  S
C2804      C2805   1.412       .  A
C2804      H2809   1.083       .  S
C2805      C2806   1.414       .  A
C2806      C2807   1.516       .  S
C2807      F2811   1.385       .  S
C2807      F2812   1.381       .  S
C2807      F2813   1.383       .  S
C2810      F2814   1.383       .  S
C2810      F2815   1.384       .  S
C2810      F2816   1.384       .  S
C2817      C2818   1.407       .  A
C2817      C2822   1.406       .  A
C2817      H2824   1.083       .  S
C2818      C2819   1.426       .  A
C2819      C2820   1.413       .  A
C2819      C2826   1.519       .  S
C2820      C2821   1.401       .  A
C2820      H2825   1.083       .  S
C2821      C2822   1.413       .  A
C2822      C2823   1.516       .  S
C2823      F2827   1.384       .  S
C2823      F2828   1.382       .  S
C2823      F2829   1.381       .  S
C2826      F2830   1.383       .  S
C2826      F2831   1.383       .  S
C2826      F2832   1.385       .  S
C2833      C2834   1.408       .  A
C2834      C2835   1.432   1_655  A
C2835      C2836   1.417       .  A
C2835      C2842   1.520       .  S
C2836      H2841   1.083       .  S
C2837      C2838   1.420       .  A
C2838      C2839   1.515       .  S
C2839      F2843   1.385       .  S
C2839      F2844   1.381       .  S
C2839      F2845   1.382       .  S
C2842      F2846   1.383       .  S
C2842      F2847   1.383   1_455  S
C2842      F2848   1.384       .  S
C2849      C2850   1.417       .  A
C2849      H2856   1.082       .  S
C2850      C2851   1.423       .  A
C2851      C2852   1.408       .  A
C2852      C2853   1.402       .  A
C2852      H2857   1.084   1_565  S
C2854      C2855   1.515       .  S
C2855      F2859   1.385       .  S
C2855      F2860   1.381       .  S
C2855      F2861   1.381       .  S
C2858      F2862   1.384       .  S
C2858      F2863   1.383   1_455  S
C2858      F2864   1.385   1_565  S
C2865      C2866   1.407       .  A
C2865      C2870   1.401       .  A
C2865      H2872   1.084       .  S
C2866      C2867   1.409       .  A
C2867      C2868   1.404       .  A
C2867      C2874   1.517       .  S
C2868      C2869   1.411       .  A
C2868      H2873   1.083       .  S
C2869      C2870   1.414       .  A
C2870      C2871   1.521       .  S
C2871      F2875   1.385       .  S
C2871      F2876   1.384       .  S
C2871      F2877   1.383       .  S
C2874      F2878   1.383       .  S
C2874      F2879   1.383       .  S
C2874      F2880   1.385       .  S
C2881      C2886   1.406       .  A
C2881      H2888   1.083       .  S
C2882      C2883   1.425       .  A
C2883      C2884   1.402   1_655  A
C2883      C2890   1.521       .  S
C2884      H2889   1.084   1_455  S
C2885      C2886   1.423       .  A
C2886      C2887   1.518       .  S
C2887      F2891   1.385       .  S
C2887      F2892   1.384       .  S
C2887      F2893   1.380       .  S
C2890      F2894   1.384       .  S
C2890      F2895   1.383       .  S
C2890      F2896   1.385       .  S
C2897      C2898   1.403       .  A
C2897      C2902   1.405       .  A
C2897      H2904   1.083       .  S
C2898      C2899   1.412       .  A
C2899      C2900   1.411       .  A
C2899      C2906   1.519       .  S
C2900      C2901   1.416       .  A
C2900      H2905   1.082       .  S
C2901      C2902   1.424       .  A
C2902      C2903   1.520       .  S
C2903      F2907   1.385       .  S
C2903      F2908   1.382       .  S
C2903      F2909   1.383       .  S
C2906      F2910   1.381       .  S
C2906      F2911   1.383       .  S
C2906      F2912   1.384       .  S
C2913      C2914   1.401   1_455  A
C2913      H2920   1.084       .  S
C2914      C2915   1.411       .  A
C2915      C2916   1.406       .  A
C2915      C2922   1.510       .  S
C2916      H2921   1.083       .  S
C2917      C2918   1.421       .  A
C2918      C2919   1.518       .  S
C2919      F2923   1.385       .  S
C2919      F2924   1.383       .  S
C2919      F2925   1.381       .  S
C2922      F2926   1.383       .  S
C2922      F2927   1.383       .  S
C2922      F2928   1.384       .  S
C2929      C2934   1.402       .  A
C2929      H2936   1.081       .  S
C2930      C2931   1.422   1_655  A
C2931      C2932   1.412       .  A
C2931      C2938   1.517       .  S
C2932      H2937   1.083       .  S
C2933      C2934   1.412       .  A
C2934      C2935   1.524       .  S
C2935      F2939   1.383       .  S
C2935      F2940   1.385       .  S
C2935      F2941   1.384       .  S
C2938      F2942   1.382       .  S
C2938      F2943   1.381   1_455  S
C2938      F2944   1.385       .  S
C2945      C2946   1.413       .  A
C2945      C2950   1.398       .  A
C2945      H2952   1.084       .  S
C2947      C2948   1.413       .  A
C2947      C2954   1.519       .  S
C2948      H2953   1.083   1_545  S
C2949      C2950   1.413       .  A
C2950      C2951   1.523       .  S
C2951      F2955   1.384       .  S
C2951      F2956   1.379       .  S
C2951      F2957   1.383       .  S
C2954      F2958   1.384       .  S
C2954      F2960   1.385   1_545  S
C2961      C2962   1.402       .  A
C2961      H2968   1.083       .  S
C2962      C2963   1.414       .  A
C2963      C2964   1.409       .  A
C2963      C2970   1.518       .  S
C2964      H2969   1.082       .  S
C2965      C2966   1.418       .  A
C2966      C2967   1.517   1_545  S
C2967      F2971   1.384       .  S
C2967      F2972   1.383       .  S
C2967      F2973   1.384       .  S
C2970      F2974   1.381       .  S
C2970      F2975   1.383       .  S
C2970      F2976   1.384       .  S
C2977      C2978   1.410       .  A
C2977      C2982   1.402       .  A
C2977      H2984   1.083       .  S
C2978      C2979   1.419       .  A
C2979      C2986   1.521       .  S
C2980      H2985   1.083   1_455  S
C2981      C2982   1.408       .  A
C2982      C2983   1.520       .  S
C2983      F2987   1.384       .  S
C2983      F2988   1.382       .  S
C2983      F2989   1.383       .  S
C2986      F2990   1.385       .  S
C2986      F2991   1.384       .  S
C2993      C2994   1.402       .  A
C2993      C2998   1.401       .  A
C2993      H3000   1.083       .  S
C2994      C2995   1.430       .  A
C2995      C2996   1.401       .  A
C2995      C3002   1.525       .  S
C2996      C2997   1.398       .  A
C2996      H3001   1.083       .  S
C2997      C2998   1.423       .  A
C2998      C2999   1.521       .  S
C2999      F3003   1.385       .  S
C2999      F3004   1.381       .  S
C2999      F3005   1.382       .  S
C3002      F3006   1.383       .  S
C3002      F3007   1.383       .  S
C3002      F3008   1.385       .  S
C3009      C3010   1.409       .  A
C3009      C3014   1.399       .  A
C3009      H3016   1.081       .  S
C3010      C3011   1.423       .  A
C3011      C3012   1.411       .  A
C3012      C3013   1.409       .  A
C3012      H3017   1.083       .  S
C3013      C3014   1.417       .  A
C3014      C3015   1.523       .  S
C3015      F3019   1.385       .  S
C3015      F3020   1.383       .  S
C3015      F3021   1.384       .  S
C3018      F3022   1.384       .  S
C3018      F3023   1.383       .  S
C3018      F3024   1.385       .  S
C3025      C3026   1.399       .  A
C3025      C3030   1.405       .  A
C3025      H3032   1.083       .  S
C3026      C3027   1.427       .  A
C3027      C3028   1.402       .  A
C3027      C3034   1.523       .  S
C3028      C3029   1.399       .  A
C3028      H3033   1.081       .  S
C3029      C3030   1.429       .  A
C3030      C3031   1.523       .  S
C3031      F3035   1.385       .  S
C3031      F3036   1.384       .  S
C3031      F3037   1.383       .  S
C3034      F3038   1.383       .  S
C3034      F3039   1.383       .  S
C3034      F3040   1.385       .  S
C3041      C3042   1.412       .  A
C3041      H3048   1.082       .  S
C3043      C3044   1.407       .  A
C3043      C3050   1.524       .  S
C3044      C3045   1.398       .  A
C3044      H3049   1.083       .  S
C3045      C3046   1.414       .  A
C3046      C3047   1.519       .  S
C3047      F3052   1.383       .  S
C3050      F3054   1.383   1_655  S
C3050      F3056   1.385       .  S
C3057      C3062   1.411       .  A
C3057      H3064   1.083       .  S
C3058      C3059   1.428       .  A
C3059      C3060   1.401       .  A
C3059      C3066   1.523       .  S
C3060      H3065   1.084       .  S
C3061      C3062   1.413       .  A
C3062      C3063   1.516       .  S
C3063      F3067   1.385       .  S
C3063      F3068   1.383       .  S
C3063      F3069   1.383       .  S
C3066      F3070   1.382       .  S
C3066      F3071   1.381       .  S
C3066      F3072   1.385       .  S
C3073      C3074   1.414       .  A
C3073      H3080   1.082       .  S
C3075      C3076   1.402       .  A
C3075      C3082   1.520       .  S
C3076      C3077   1.403       .  A
C3076      H3081   1.084       .  S
C3077      C3078   1.408       .  A
C3079      F3083   1.385       .  S
C3079      F3084   1.384       .  S
C3082      F3086   1.381       .  S
C3082      F3087   1.382       .  S
C3082      F3088   1.385       .  S
C3089      C3090   1.399       .  A
C3089      H3096   1.079       .  S
C3090      C3091   1.412       .  A
C3091      C3092   1.412       .  A
C3091      C3098   1.515       .  S
C3092      H3097   1.083       .  S
C3093      C3094   1.424       .  A
C3094      C3095   1.516       .  S
C3095      F3099   1.385       .  S
C3095      F3100   1.380       .  S
C3095      F3101   1.382       .  S
C3098      F3102   1.383       .  S
C3098      F3103   1.383       .  S
C3098      F3104   1.384       .  S
C3105      C3106   1.399       .  A
C3105      C3110   1.413       .  A
C3105      H3112   1.081       .  S
C3106      C3107   1.410       .  A
C3107      C3108   1.413       .  A
C3107      C3114   1.516       .  S
C3108      C3109   1.414       .  A
C3108      H3113   1.079       .  S
C3109      C3110   1.432       .  A
C3110      C3111   1.522       .  S
C3111      F3115   1.385       .  S
C3111      F3116   1.384       .  S
C3111      F3117   1.383       .  S
C3114      F3118   1.384       .  S
C3114      F3120   1.384       .  S
C3121      C3126   1.410       .  A
C3123      C3124   1.410       .  A
C3123      C3130   1.514       .  S
C3124      C3125   1.403       .  A
C3124      H3129   1.084       .  S
C3125      C3126   1.417       .  A
C3126      C3127   1.519       .  S
C3127      F3131   1.385       .  S
C3127      F3132   1.384       .  S
C3127      F3133   1.382       .  S
C3130      F3134   1.384       .  S
C3130      F3136   1.385       .  S
C3137      C3138   1.398       .  A
C3137      C3142   1.406       .  A
C3137      H3144   1.084       .  S
C3138      C3139   1.410       .  A
C3139      C3140   1.399       .  A
C3139      C3146   1.521       .  S
C3140      C3141   1.410       .  A
C3140      H3145   1.082       .  S
C3141      C3142   1.426       .  A
C3142      C3143   1.521       .  S
C3143      F3147   1.385       .  S
C3143      F3148   1.383       .  S
C3143      F3149   1.383   1_655  S
C3146      F3150   1.381       .  S
C3146      F3151   1.384       .  S
C3146      F3152   1.385       .  S
C3153      C3154   1.414       .  A
C3153      C3158   1.404       .  A
C3153      H3160   1.083       .  S
C3154      C3155   1.414       .  A
C3155      C3156   1.404       .  A
C3155      C3162   1.519       .  S
C3156      C3157   1.412       .  A
C3156      H3161   1.080       .  S
C3157      C3158   1.412       .  A
C3158      C3159   1.519       .  S
C3159      F3163   1.385       .  S
C3159      F3164   1.383       .  S
C3159      F3165   1.383       .  S
C3162      F3166   1.381       .  S
C3162      F3167   1.383       .  S
C3162      F3168   1.384       .  S
C3169      C3170   1.404       .  A
C3169      C3174   1.407       .  A
C3169      H3176   1.083       .  S
C3170      C3171   1.420       .  A
C3171      C3172   1.398       .  A
C3171      C3178   1.523       .  S
C3172      C3173   1.397       .  A
C3172      H3177   1.085       .  S
C3173      C3174   1.411       .  A
C3174      C3175   1.516       .  S
C3175      F3179   1.384       .  S
C3175      F3180   1.383       .  S
C3175      F3181   1.383       .  S
C3178      F3182   1.382       .  S
C3178      F3183   1.384       .  S
C3178      F3184   1.385       .  S
C3185      C3186   1.402       .  A
C3185      C3190   1.406       .  A
C3185      H3192   1.083       .  S
C3187      C3188   1.411       .  A
C3187      C3194   1.516       .  S
C3188      H3193   1.083       .  S
C3189      C3190   1.420       .  A
C3190      C3191   1.520       .  S
C3191      F3195   1.385       .  S
C3191      F3196   1.383       .  S
C3191      F3197   1.383       .  S
C3194      F3198   1.382       .  S
C3194      F3199   1.383       .  S
C3194      F3200   1.385       .  S
C3201      C3206   1.414       .  A
C3201      H3208   1.083       .  S
C3202      C3203   1.421       .  A
C3203      C3210   1.517       .  S
C3204      C3205   1.408       .  A
C3204      H3209   1.081       .  S
C3205      C3206   1.430       .  A
C3206      C3207   1.517       .  S
C3207      F3211   1.385       .  S
C3207      F3212   1.383       .  S
C3207      F3213   1.382       .  S
C3210      F3214   1.383       .  S
C3210      F3215   1.380       .  S
C3210      F3216   1.385       .  S
C3217      C3218   1.402       .  A
C3217      C3222   1.410       .  A
C3217      H3224   1.083       .  S
C3219      C3226   1.529   1_545  S
C3220      C3221   1.391       .  A
C3220      H3225   1.084       .  S
C3221      C3222   1.419       .  A
C3222      C3223   1.518       .  S
C3223      F3227   1.384       .  S
C3223      F3228   1.383       .  S
C3223      F3229   1.382       .  S
C3226      F3230   1.379       .  S
C3226      F3231   1.380       .  S
C3226      F3232   1.385       .  S
C3233      C3234   1.403       .  A
C3233      C3238   1.403       .  A
C3233      H3240   1.083       .  S
C3234      C3235   1.435       .  A
C3235      C3236   1.405       .  A
C3235      C3242   1.523       .  S
C3236      C3237   1.390       .  A
C3236      H3241   1.083       .  S
C3237      C3238   1.415       .  A
C3238      C3239   1.518       .  S
C3239      F3243   1.385       .  S
C3239      F3244   1.384       .  S
C3239      F3245   1.382       .  S
C3242      F3246   1.383       .  S
C3242      F3247   1.381       .  S
C3242      F3248   1.385       .  S
C3249      C3250   1.408       .  A
C3249      C3254   1.415       .  A
C3249      H3256   1.083       .  S
C3250      C3251   1.419       .  A
C3251      C3252   1.409       .  A
C3251      C3258   1.521       .  S
C3252      C3253   1.410       .  A
C3252      H3257   1.082       .  S
C3253      C3254   1.424       .  A
C3254      C3255   1.520       .  S
C3255      F3259   1.385       .  S
C3255      F3260   1.383       .  S
C3255      F3261   1.383       .  S
C3258      F3262   1.383       .  S
C3258      F3263   1.383       .  S
C3258      F3264   1.385       .  S
C3265      C3266   1.400       .  A
C3265      C3270   1.410       .  A
C3265      H3272   1.083       .  S
C3267      C3268   1.411       .  A
C3267      C3274   1.518       .  S
C3268      C3269   1.410       .  A
C3268      H3273   1.082       .  S
C3270      C3271   1.523       .  S
C3271      F3275   1.385       .  S
C3271      F3276   1.384   1_655  S
C3271      F3277   1.383       .  S
C3274      F3278   1.382       .  S
C3274      F3279   1.384       .  S
C3274      F3280   1.384       .  S
C3281      C3282   1.399       .  A
C3281      C3286   1.413       .  A
C3281      H3288   1.083       .  S
C3282      C3283   1.416       .  A
C3283      C3284   1.411       .  A
C3283      C3290   1.518       .  S
C3284      C3285   1.408       .  A
C3284      H3289   1.083       .  S
C3285      C3286   1.426       .  A
C3286      C3287   1.519       .  S
C3287      F3291   1.385       .  S
C3287      F3292   1.383       .  S
C3287      F3293   1.383       .  S
C3290      F3294   1.383       .  S
C3290      F3295   1.381       .  S
C3290      F3296   1.385       .  S
C3297      C3298   1.407       .  A
C3297      C3302   1.402       .  A
C3297      H3304   1.082       .  S
C3298      C3299   1.425       .  A
C3299      C3300   1.407       .  A
C3299      C3306   1.522       .  S
C3300      C3301   1.400       .  A
C3301      C3302   1.413       .  A
C3302      C3303   1.517       .  S
C3303      F3307   1.385       .  S
C3303      F3308   1.382       .  S
C3303      F3309   1.382       .  S
C3306      F3310   1.382       .  S
C3313      C3314   1.403       .  A
C3313      C3318   1.403       .  A
C3313      H3320   1.084       .  S
C3314      C3315   1.413       .  A
C3315      C3316   1.404       .  A
C3315      C3322   1.517       .  S
C3316      C3317   1.402       .  A
C3316      H3321   1.084       .  S
C3317      C3318   1.409       .  A
C3318      C3319   1.513       .  S
C3319      F3323   1.384       .  S
C3319      F3324   1.383       .  S
C3319      F3325   1.383       .  S
C3322      F3326   1.383       .  S
C3322      F3327   1.383       .  S
C3322      F3328   1.385       .  S
C3329      C3330   1.406       .  A
C3329      C3334   1.415       .  A
C3329      H3336   1.083   1_655  S
C3330      C3331   1.415       .  A
C3331      C3332   1.394   1_556  A
C3331      C3338   1.521   1_556  S
C3332      C3333   1.405   1_554  A
C3332      H3337   1.085       .  S
C3333      C3334   1.421       .  A
C3334      C3335   1.517       .  S
C3335      F3339   1.385       .  S
C3335      F3340   1.383       .  S
C3335      F3341   1.383       .  S
C3338      F3343   1.379   1_554  S
C3338      F3344   1.384   1_554  S
C3345      C3346   1.398       .  A
C3345      C3350   1.409       .  A
C3345      H3352   1.084       .  S
C3346      C3347   1.425       .  A
C3347      C3348   1.404       .  A
C3347      C3354   1.519       .  S
C3348      C3349   1.396       .  A
C3348      H3353   1.084   1_554  S
C3349      C3350   1.423       .  A
C3350      C3351   1.518       .  S
C3351      F3355   1.385       .  S
C3351      F3356   1.384       .  S
C3351      F3357   1.381       .  S
C3354      F3358   1.383       .  S
C3354      F3359   1.381   1_554  S
C3354      F3360   1.385   1_554  S
