geometry optimzed in LAMMPS
_audit_creation_date              2020-12-01 
_audit_creation_method            'lammps2cif' 
_symmetry_space_group_name_H-M    'P1' 
_symmetry_Int_Tables_number       1 
_symmetry_cell_setting            triclinic 
loop_ 
_symmetry_equiv_pos_as_xyz 
  x,y,z 
_cell_length_a                    80.50224174 
_cell_length_b                    80.34839858449666 
_cell_length_c                    32.167470632837365 
_cell_angle_alpha                 89.98898606765209 
_cell_angle_beta                  89.9664112551257 
_cell_angle_gamma                 90.01585024689736 
loop_ 
_atom_site_label 
_atom_site_type_symbol 
_atom_site_fract_x 
_atom_site_fract_y 
_atom_site_fract_z 
_atom_site_charge 
Fe1        Fe  0.84629009  0.25531731  0.47109821     1.65800
Fe2        Fe  0.88171432  0.23776378  0.51065424     1.73200
Fe3        Fe  0.85499825  0.21408617  0.45204833     1.54400
O4          O  0.83067587  0.21498356  0.47296863    -0.80200
O5          O  0.89588068  0.22459820  0.46835173    -0.78500
O6          O  0.82478527  0.24188682  0.48142548    -0.82700
O7          O  0.84454354  0.25204716  0.40786323    -0.77500
O8          O  0.86081699  0.20034731  0.50451937    -0.79300
O9          O  0.88905287  0.25931272  0.48086900    -0.82100
C10         C  0.84548647  0.23963164  0.38375899     0.98700
C11         C  0.82070009  0.22665997  0.48184451     1.06200
O12         O  0.86099550  0.23569775  0.47796769    -1.11000
O13         O  0.87044972  0.25116581  0.55776992    -0.73500
O14         O  0.84639415  0.26096825  0.53356485    -0.77000
O15         O  0.84866605  0.22497539  0.39599251    -0.77600
C16         C  0.85692823  0.25903818  0.56236914     0.97600
O17         O  0.86570401  0.27160819  0.45978522    -0.75600
O18         O  0.87702275  0.21639223  0.54415215    -0.80800
C19         C  0.89305096  0.21465246  0.43862814     1.00200
C20         C  0.86935903  0.20290959  0.53700960     1.06200
O21         O  0.87855142  0.21021828  0.42791347    -0.76400
C22         C  0.88134518  0.27132596  0.46421005     1.04500
Fe23       Fe  0.66179045  0.25397396  0.56767248     1.65800
Fe24       Fe  0.62721579  0.23508134  0.52705374     1.73200
Fe25       Fe  0.65483271  0.21231361  0.58536261     1.54400
O26         O  0.67941062  0.21463837  0.56739817    -0.80200
O27         O  0.61333819  0.22239197  0.57081805    -0.78500
O28         O  0.68394681  0.24168624  0.55745780    -0.82700
O29         O  0.66336953  0.25042179  0.63093724    -0.77500
O30         O  0.65083107  0.19880519  0.53141957    -0.79300
O31         O  0.61919267  0.25693731  0.55432137    -0.82100
C32         C  0.66213319  0.23798592  0.65497957     0.98700
C33         C  0.68883259  0.22671856  0.55823492     1.06200
O34         O  0.64795235  0.23377530  0.56000365    -1.11000
O35         O  0.63866449  0.24783946  0.47924281    -0.73500
O36         O  0.66156837  0.25965421  0.50515782    -0.77000
O37         O  0.65941857  0.22326005  0.64245236    -0.77600
C38         C  0.65176056  0.25647803  0.47538956     0.97600
O39         O  0.64178402  0.26945531  0.57905467    -0.75600
O40         O  0.63221141  0.21340763  0.49521505    -0.80800
C41         C  0.61660583  0.21176357  0.59875342     1.00200
C42         C  0.64137858  0.20076331  0.50027503     1.06200
O43         O  0.63121280  0.20686896  0.60693234    -0.76400
C44         C  0.62629200  0.26897862  0.57241701     1.04500
Fe45       Fe  0.84817639  0.28229159  0.97106205     1.65800
Fe46       Fe  0.88287194  0.30074408  0.01240111     1.73200
Fe47       Fe  0.85545375  0.32397044  0.95461426     1.54400
O48         O  0.85089821  0.31336813  0.89720713    -0.80200
O49         O  0.87838696  0.32261583  0.04399123    -0.78500
O50         O  0.84631327  0.28625410  0.90786196    -0.82700
O51         O  0.82616402  0.29465562  0.98231815    -0.77500
O52         O  0.87925855  0.32943250  0.93376692    -0.79300
O53         O  0.87119569  0.28825496  0.06025174    -0.82100
C54         C  0.82126523  0.30961437  0.98145549     0.98700
C55         C  0.84774865  0.29880278  0.88421762     1.06200
O56         O  0.86216918  0.30234558  0.97936053    -1.11000
O57         O  0.89052139  0.27866333  0.98560215    -0.73500
O58         O  0.86800140  0.26673227  0.95874390    -0.77000
O59         O  0.83071061  0.32168608  0.97212791    -0.77600
C60         C  0.88340141  0.26685924  0.96660895     0.97600
O61         O  0.84860592  0.27617911  0.03333601    -0.75600
O62         O  0.89690170  0.31314889  0.96857416    -0.80800
C63         C  0.86919378  0.33527307  0.03939724     1.00200
C64         C  0.89380769  0.32422628  0.94163158     1.06200
O65         O  0.85943411  0.33719851  0.00886788    -0.76400
C66         C  0.85821176  0.27940913  0.06348657     1.04500
Fe67       Fe  0.66080880  0.28185990  0.06607065     1.65800
Fe68       Fe  0.62603032  0.30203032  0.03068320     1.73200
Fe69       Fe  0.65519883  0.32345765  0.08742930     1.54400
O70         O  0.66033704  0.31176556  0.14319586    -0.80200
O71         O  0.63114631  0.32383973  0.99961504    -0.78500
O72         O  0.66387550  0.28473866  0.12921263    -0.82700
O73         O  0.68302654  0.29365886  0.05338394    -0.77500
O74         O  0.63201670  0.32955285  0.11149190    -0.79300
O75         O  0.63614343  0.28929816  0.98089258    -0.82100
C76         C  0.68837537  0.30845488  0.05505523     0.98700
C77         C  0.66316936  0.29688318  0.15427340     1.06200
O78         O  0.64734114  0.30246781  0.06139527    -1.11000
O79         O  0.61793098  0.28019971  0.05789415    -0.73500
O80         O  0.64063436  0.26687739  0.07927072    -0.77000
O81         O  0.67949111  0.32061046  0.06678607    -0.77600
C82         C  0.62505624  0.26783096  0.07449388     0.97600
O83         O  0.65913548  0.27665709  0.00348660    -0.75600
O84         O  0.61322117  0.31487222  0.07613238    -0.80800
C85         C  0.64067242  0.33622275  0.00471922     1.00200
C86         C  0.61712408  0.32536048  0.10386853     1.06200
O87         O  0.65069576  0.33760397  0.03491337    -0.76400
C88         C  0.64885974  0.28028066  0.97509076     1.04500
Fe89       Fe  0.51898227  0.42502670  0.71890991     1.65800
Fe90       Fe  0.53728435  0.39020925  0.76035721     1.73200
Fe91       Fe  0.56046458  0.41739391  0.70154731     1.54400
O92         O  0.54971003  0.42199086  0.64436268    -0.80200
O93         O  0.55917924  0.39468574  0.79162519    -0.78500
O94         O  0.52271598  0.42667016  0.65566819    -0.82700
O95         O  0.53153723  0.44706780  0.72939366    -0.77500
O96         O  0.56559861  0.39346384  0.68076615    -0.79300
O97         O  0.52484674  0.40205249  0.80809842    -0.82100
C98         C  0.54651074  0.45187509  0.72822995     0.98700
C99         C  0.53512804  0.42513863  0.63172520     1.06200
O100        O  0.53893393  0.41088495  0.72699248    -1.11000
O101        O  0.51525287  0.38255515  0.73353798    -0.73500
O102        O  0.50332438  0.40518742  0.70710283    -0.77000
O103        O  0.55846605  0.44226845  0.71896497    -0.77600
C104        C  0.50348296  0.38972152  0.71459334     0.97600
O105        O  0.51302030  0.42482355  0.78132509    -0.75600
O106        O  0.54962442  0.37593009  0.71686571    -0.80800
C107        C  0.57199245  0.40357712  0.78613931     1.00200
C108        C  0.56050901  0.37890849  0.68937892     1.06200
O109        O  0.57390323  0.41323246  0.75533139    -0.76400
C110        C  0.51614239  0.41513969  0.81143995     1.04500
Fe111      Fe  0.51992203  0.61163205  0.81983704     1.65800
Fe112      Fe  0.53889274  0.64655323  0.78095174     1.73200
Fe113      Fe  0.56143893  0.61849568  0.83869322     1.54400
O114        O  0.55032679  0.61295175  0.89505816    -0.80200
O115        O  0.56067698  0.64194294  0.74939717    -0.78500
O116        O  0.52321811  0.60945085  0.88307961    -0.82700
O117        O  0.53231320  0.58953260  0.80855459    -0.77500
O118        O  0.56644839  0.64202153  0.86225044    -0.79300
O119        O  0.52628323  0.63547160  0.73244152    -0.82100
C120        C  0.54726779  0.58462587  0.80858988     0.98700
C121        C  0.53559973  0.61020182  0.90729178     1.06200
O122        O  0.54011110  0.62555590  0.81311568    -1.11000
O123        O  0.51700892  0.65435671  0.80823387    -0.73500
O124        O  0.50441368  0.63161059  0.83207321    -0.77000
O125        O  0.55935114  0.59401044  0.81825347    -0.77600
C126        C  0.50494403  0.64717960  0.82599698     0.97600
O127        O  0.51436936  0.61239464  0.75729236    -0.75600
O128        O  0.55144686  0.66012421  0.82532105    -0.80800
C129        C  0.57352796  0.63315624  0.75514192     1.00200
C130        C  0.56178192  0.65672637  0.85376505     1.06200
O131        O  0.57536732  0.62349989  0.78597812    -0.76400
C132        C  0.51758004  0.62244136  0.72799403     1.04500
Fe133      Fe  0.49081244  0.42670265  0.21963776     1.65800
Fe134      Fe  0.47221364  0.39161441  0.25856733     1.73200
Fe135      Fe  0.44942479  0.41924399  0.20017029     1.54400
O136        O  0.45121419  0.44371083  0.22036271    -0.80200
O137        O  0.45957739  0.37778896  0.21467712    -0.78500
O138        O  0.47814150  0.44854224  0.23078555    -0.82700
O139        O  0.48758645  0.42882399  0.15637349    -0.77500
O140        O  0.43554355  0.41432180  0.25288690    -0.79300
O141        O  0.49421778  0.38397268  0.23108128    -0.82100
C142        C  0.47528504  0.42783789  0.13195366     0.98700
C143        C  0.46313106  0.45319921  0.23048539     1.06200
O144        O  0.47079874  0.41250189  0.22609055    -1.11000
O145        O  0.48483107  0.40284212  0.30693132    -0.73500
O146        O  0.49629829  0.42613482  0.28217639    -0.77000
O147        O  0.46057675  0.42480354  0.14389939    -0.77600
C148        C  0.49330097  0.41602199  0.31143659     0.97600
O149        O  0.50659565  0.40696511  0.20786893    -0.75600
O150        O  0.45043425  0.39631244  0.29032667    -0.80800
C151        C  0.44917627  0.38096588  0.18620078     1.00200
C152        C  0.43752363  0.40500253  0.28428624     1.06200
O153        O  0.44455957  0.39561795  0.17699656    -0.76400
C154        C  0.50629078  0.39138934  0.21382640     1.04500
Fe155      Fe  0.49183776  0.61205798  0.31986274     1.65800
Fe156      Fe  0.47289870  0.64665820  0.27921363     1.73200
Fe157      Fe  0.45043392  0.61932263  0.33924819     1.54400
O158        O  0.45231706  0.59476569  0.32012598    -0.80200
O159        O  0.46077043  0.66073379  0.32358928    -0.78500
O160        O  0.47928591  0.59002827  0.30967225    -0.82700
O161        O  0.48864487  0.61025889  0.38318672    -0.77500
O162        O  0.43631445  0.62391491  0.28676931    -0.79300
O163        O  0.49502335  0.65450079  0.30495875    -0.82100
C164        C  0.47633728  0.61130224  0.40756911     0.98700
C165        C  0.46429405  0.58526415  0.31054338     1.06200
O166        O  0.47170461  0.62600564  0.31271783    -1.11000
O167        O  0.48513584  0.63495814  0.23083542    -0.73500
O168        O  0.49740914  0.61237063  0.25728460    -0.77000
O169        O  0.46162809  0.61415392  0.39553415    -0.77600
C170        C  0.49400847  0.62198937  0.22724789     0.97600
O171        O  0.50737542  0.63202743  0.33106976    -0.75600
O172        O  0.45087565  0.64199493  0.24877371    -0.80800
C173        C  0.45057702  0.65759699  0.35261872     1.00200
C174        C  0.43802035  0.63331042  0.25541757     1.06200
O175        O  0.44576252  0.64300959  0.36172328    -0.76400
C176        C  0.50700426  0.64747150  0.32335011     1.04500
Fe177      Fe  0.34886674  0.75492058  0.97071069     1.65800
Fe178      Fe  0.38384424  0.73681679  0.01150942     1.73200
Fe179      Fe  0.35710897  0.71360825  0.95170821     1.54400
O180        O  0.33219943  0.71522307  0.96867163    -0.80200
O181        O  0.39832229  0.72531514  0.96705805    -0.78500
O182        O  0.32713881  0.74199978  0.98131680    -0.82700
O183        O  0.34703409  0.75147700  0.90740282    -0.77500
O184        O  0.36111939  0.69993950  0.00529336    -0.79300
O185        O  0.39103507  0.75936316  0.98635680    -0.82100
C186        C  0.34893588  0.73927435  0.88290506     0.98700
C187        C  0.32251288  0.72697709  0.97901733     1.06200
O188        O  0.36326831  0.73510201  0.97798294    -1.11000
O189        O  0.37172565  0.74843574  0.06001303    -0.73500
O190        O  0.34915765  0.76058157  0.03324849    -0.77000
O191        O  0.35256550  0.72468158  0.89486052    -0.77600
C192        C  0.35865976  0.75713627  0.06344732     0.97600
O193        O  0.36840598  0.77089385  0.95899519    -0.75600
O194        O  0.37978971  0.71448507  0.04145477    -0.80800
C195        C  0.39557251  0.71441242  0.93945408     1.00200
C196        C  0.37078159  0.70173952  0.03606780     1.06200
O197        O  0.38116193  0.70889398  0.93116147    -0.76400
C198        C  0.38376849  0.77105281  0.96728015     1.04500
Fe199      Fe  0.16403323  0.75600674  0.06685903     1.65800
Fe200      Fe  0.12813051  0.73841238  0.02991858     1.73200
Fe201      Fe  0.15575589  0.71464150  0.08548014     1.54400
O202        O  0.18031529  0.71615069  0.06548567    -0.80200
O203        O  0.11446360  0.72693635  0.07575298    -0.78500
O204        O  0.18539999  0.74294885  0.05308127    -0.82700
O205        O  0.16708019  0.75220219  0.12965886    -0.77500
O206        O  0.15049759  0.70125176  0.03210688    -0.79300
O207        O  0.12173014  0.76092214  0.05649156    -0.82100
C208        C  0.16547292  0.73990778  0.15399057     0.98700
C209        C  0.18990902  0.72786986  0.05432066     1.06200
O210        O  0.14931646  0.73633318  0.06074370    -1.11000
O211        O  0.13946223  0.74997998  0.98031727    -0.73500
O212        O  0.16256387  0.76195926  0.00463572    -0.77000
O213        O  0.16149423  0.72539930  0.14205914    -0.77600
C214        C  0.15253176  0.75856121  0.97550729     0.97600
O215        O  0.14490687  0.77211032  0.08172783    -0.75600
O216        O  0.13115693  0.71610776  0.99909864    -0.80800
C217        C  0.11759152  0.71573055  0.10229021     1.00200
C218        C  0.14006571  0.70321100  0.00299992     1.06200
O219        O  0.13206991  0.70998549  0.10866576    -0.76400
C220        C  0.12940223  0.77241744  0.07529476     1.04500
Fe221      Fe  0.34851464  0.78287244  0.47096221     1.65800
Fe222      Fe  0.38407390  0.80136531  0.50725906     1.73200
Fe223      Fe  0.35606982  0.82419833  0.45022594     1.54400
O224        O  0.35042683  0.81296849  0.39431918    -0.80200
O225        O  0.38012188  0.82350741  0.53792421    -0.78500
O226        O  0.34562873  0.78609923  0.40779105    -0.82700
O227        O  0.32688670  0.79572801  0.48376949    -0.77500
O228        O  0.37957652  0.82908817  0.42650417    -0.79300
O229        O  0.37314900  0.78932164  0.55698292    -0.82100
C230        C  0.32221854  0.81076053  0.48231910     0.98700
C231        C  0.34687099  0.79829079  0.38296701     1.06200
O232        O  0.36289576  0.80281911  0.47613816    -1.11000
O233        O  0.39109560  0.77903086  0.48090322    -0.73500
O234        O  0.36798865  0.76692085  0.45779283    -0.77000
O235        O  0.33164106  0.82252223  0.47066873    -0.77600
C236        C  0.38353567  0.76703782  0.46381696     0.97600
O237        O  0.34989448  0.77740655  0.53349700    -0.75600
O238        O  0.39759029  0.81332953  0.46157893    -0.80800
C239        C  0.37110001  0.83625193  0.53279656     1.00200
C240        C  0.39421461  0.82401227  0.43385605     1.06200
O241        O  0.36110868  0.83800768  0.50273261    -0.76400
C242        C  0.36013492  0.78068090  0.56225806     1.04500
Fe243      Fe  0.16353169  0.78280561  0.56633403     1.65800
Fe244      Fe  0.12814775  0.80073186  0.52744757     1.73200
Fe245      Fe  0.15522503  0.82407913  0.58571764     1.54400
O246        O  0.15927543  0.81303235  0.64269566    -0.80200
O247        O  0.13218226  0.82299139  0.49712405    -0.78500
O248        O  0.16617987  0.78659521  0.62929882    -0.82700
O249        O  0.18509775  0.79572478  0.55363888    -0.77500
O250        O  0.13117289  0.82946954  0.60534819    -0.79300
O251        O  0.13977796  0.78896243  0.47847382    -0.82100
C252        C  0.18982639  0.81064512  0.55794055     0.98700
C253        C  0.16365258  0.79857883  0.65412790     1.06200
O254        O  0.14897934  0.80254960  0.55981877    -1.11000
O255        O  0.12119814  0.77829376  0.55375958    -0.73500
O256        O  0.14409408  0.76692260  0.58024408    -0.77000
O257        O  0.18023959  0.82219605  0.57006202    -0.77600
C258        C  0.12863260  0.76674459  0.57302706     0.97600
O259        O  0.16252047  0.77678583  0.50401644    -0.75600
O260        O  0.11388775  0.81241617  0.57196173    -0.80800
C261        C  0.14155706  0.83555557  0.50142373     1.00200
C262        C  0.11671827  0.82387343  0.59801326     1.06200
O263        O  0.15161112  0.83734838  0.53142948    -0.76400
C264        C  0.15276014  0.78020730  0.47433449     1.04500
Fe265      Fe  0.01893042  0.42480661  0.82026953     1.65800
Fe266      Fe  0.03778937  0.39013184  0.77974950     1.73200
Fe267      Fe  0.06072917  0.41837791  0.83575359     1.54400
O268        O  0.05782812  0.44304909  0.81794812    -0.80200
O269        O  0.05063624  0.37657502  0.82350851    -0.78500
O270        O  0.03078519  0.44697195  0.80715233    -0.82700
O271        O  0.02329002  0.42736614  0.88307282    -0.77500
O272        O  0.07370577  0.41444621  0.78114399    -0.79300
O273        O  0.01602740  0.38223751  0.80769950    -0.82100
C274        C  0.03586276  0.42606278  0.90654134     0.98700
C275        C  0.04561667  0.45218879  0.80803973     1.06200
O276        O  0.03916302  0.41111406  0.81188141    -1.11000
O277        O  0.02483739  0.40121889  0.73199076    -0.73500
O278        O  0.01224500  0.42364969  0.75837083    -0.77000
O279        O  0.05037443  0.42287070  0.89344263    -0.77600
C280        C  0.01552384  0.41385721  0.72857575     0.97600
O281        O  0.00397592  0.40472480  0.83461528    -0.75600
O282        O  0.05943085  0.39484202  0.74734640    -0.80800
C283        C  0.06187566  0.38004873  0.84962320     1.00200
C284        C  0.07190761  0.40433882  0.75122993     1.06200
O285        O  0.06684307  0.39475819  0.85675916    -0.76400
C286        C  0.00431399  0.38925627  0.82725848     1.04500
Fe287      Fe  0.01909265  0.61161311  0.71817156     1.65800
Fe288      Fe  0.03764299  0.64696953  0.75560350     1.73200
Fe289      Fe  0.06058341  0.61873540  0.69932595     1.54400
O290        O  0.05870627  0.59442827  0.72083440    -0.80200
O291        O  0.05056768  0.66034732  0.71134835    -0.78500
O292        O  0.03166675  0.58970997  0.72968756    -0.82700
O293        O  0.02244401  0.60915720  0.65498783    -0.77500
O294        O  0.07430869  0.62425348  0.75198769    -0.79300
O295        O  0.01586194  0.65450333  0.72728044    -0.82100
C296        C  0.03493649  0.60953671  0.63101369     0.98700
C297        C  0.04665483  0.58496088  0.73014549     1.06200
O298        O  0.03912619  0.62578633  0.72432886    -1.11000
O299        O  0.02468887  0.63622421  0.80412761    -0.73500
O300        O  0.01358290  0.61253137  0.78071302    -0.77000
O301        O  0.04961757  0.61250719  0.64326999    -0.77600
C302        C  0.01632891  0.62300965  0.80932299     0.97600
O303        O  0.00330365  0.63133434  0.70595689    -0.75600
O304        O  0.05920040  0.64248943  0.78819727    -0.80800
C305        C  0.06099625  0.65686817  0.68313222     1.00200
C306        C  0.07217653  0.63384181  0.78283454     1.06200
O307        O  0.06552887  0.64211558  0.67470426    -0.76400
C308        C  0.00369626  0.64696644  0.71092112     1.04500
Fe309      Fe  0.99251396  0.42452464  0.31869568     1.65800
Fe310      Fe  0.97288977  0.39031451  0.27808485     1.73200
Fe311      Fe  0.95082621  0.41848806  0.33660783     1.54400
O312        O  0.96198008  0.42318897  0.39325236    -0.80200
O313        O  0.95112047  0.39546316  0.24689338    -0.78500
O314        O  0.98928182  0.42570414  0.38211746    -0.82700
O315        O  0.98071554  0.44706118  0.30977333    -0.77500
O316        O  0.94511655  0.39491456  0.35877357    -0.79300
O317        O  0.98569679  0.40165967  0.23009967    -0.82100
C318        C  0.96590014  0.45231559  0.30947718     0.98700
C319        C  0.97676623  0.42508133  0.40597862     1.06200
O320        O  0.97204478  0.41110850  0.31106200    -1.11000
O321        O  0.99466797  0.38183135  0.30481944    -0.73500
O322        O  0.00774840  0.40423262  0.32879262    -0.77000
O323        O  0.95352627  0.44308416  0.31757946    -0.77600
C324        C  0.00696002  0.38872770  0.32225646     0.97600
O325        O  0.99777440  0.42449552  0.25598820    -0.75600
O326        O  0.96004645  0.37668847  0.32197416    -0.80800
C327        C  0.93847292  0.40453724  0.25281109     1.00200
C328        C  0.94952865  0.38015990  0.34999781     1.06200
O329        O  0.93691499  0.41425600  0.28359994    -0.76400
C330        C  0.99443323  0.41471994  0.22621016     1.04500
Fe331      Fe  0.99377421  0.61276524  0.21771604     1.65800
Fe332      Fe  0.97481744  0.64684164  0.26118584     1.73200
Fe333      Fe  0.95194536  0.61924814  0.20296284     1.54400
O334        O  0.96235527  0.61454055  0.14533530    -0.80200
O335        O  0.95347255  0.64155810  0.29408464    -0.78500
O336        O  0.98963932  0.61122192  0.15473282    -0.82700
O337        O  0.98190512  0.59038610  0.22857256    -0.77500
O338        O  0.94630632  0.64301575  0.18167284    -0.79300
O339        O  0.98811785  0.63517429  0.30782539    -0.82100
C340        C  0.96702749  0.58528177  0.22953521     0.98700
C341        C  0.97692824  0.61209395  0.13167438     1.06200
O342        O  0.97348618  0.62628945  0.22730781    -1.11000
O343        O  0.99623579  0.65529557  0.23274290    -0.73500
O344        O  0.00871798  0.63312230  0.20545019    -0.77000
O345        O  0.95468937  0.59457619  0.22146977    -0.77600
C346        C  0.00805355  0.64857586  0.21295245     0.97600
O347        O  0.00018497  0.61280902  0.27969744    -0.75600
O348        O  0.96150143  0.66086524  0.21891659    -0.80800
C349        C  0.94066516  0.63268074  0.28849442     1.00200
C350        C  0.95083481  0.65769167  0.19103323     1.06200
O351        O  0.93863200  0.62338691  0.25706535    -0.76400
C352        C  0.99704174  0.62220127  0.31031966     1.04500
Fe353      Fe  0.51789662  0.11214282  0.21844148     1.65800
Fe354      Fe  0.53680588  0.14675751  0.25909963     1.73200
Fe355      Fe  0.55946647  0.11908319  0.20073108     1.54400
O356        O  0.55700180  0.09430727  0.21842481    -0.80200
O357        O  0.54868488  0.16068490  0.21436970    -0.78500
O358        O  0.53008414  0.09007607  0.23070912    -0.82700
O359        O  0.52171086  0.10978529  0.15548384    -0.77500
O360        O  0.57304587  0.12303383  0.25436259    -0.79300
O361        O  0.51456012  0.15440922  0.23354460    -0.82100
C362        C  0.53403244  0.11138978  0.13133390     0.98700
C363        C  0.54496447  0.08502074  0.22900102     1.06200
O364        O  0.53807631  0.12597669  0.22616113    -1.11000
O365        O  0.52481659  0.13509287  0.30759590    -0.73500
O366        O  0.51170760  0.11307794  0.28054401    -0.77000
O367        O  0.54862033  0.11466379  0.14365211    -0.77600
C368        C  0.51546375  0.12246345  0.31075623     0.97600
O369        O  0.50272209  0.13214860  0.20499001    -0.75600
O370        O  0.55899821  0.14246802  0.28926729    -0.80800
C371        C  0.55966342  0.15748874  0.18731847     1.00200
C372        C  0.57155529  0.13318419  0.28427750     1.06200
O373        O  0.56492272  0.14290391  0.17976861    -0.76400
C374        C  0.50291696  0.14751982  0.21352872     1.04500
Fe375      Fe  0.51912696  0.92482221  0.31423753     1.65800
Fe376      Fe  0.53862829  0.89033984  0.27473311     1.73200
Fe377      Fe  0.56049127  0.91805430  0.33491564     1.54400
O378        O  0.55814760  0.94282541  0.31677434    -0.80200
O379        O  0.54989413  0.87637303  0.32048183    -0.78500
O380        O  0.53137693  0.94685976  0.30225001    -0.82700
O381        O  0.52227319  0.92754148  0.37738408    -0.77500
O382        O  0.57469859  0.91422105  0.28226242    -0.79300
O383        O  0.51593637  0.88262799  0.29811368    -0.82100
C384        C  0.53435025  0.92618374  0.40236269     0.98700
C385        C  0.54620222  0.95200147  0.30499179     1.06200
O386        O  0.53942582  0.91107156  0.30799818    -1.11000
O387        O  0.52741562  0.90209834  0.22524201    -0.73500
O388        O  0.51358282  0.92374768  0.25177752    -0.77000
O389        O  0.54902319  0.92265583  0.39114578    -0.77600
C390        C  0.51793788  0.91460358  0.22161120     0.97600
O391        O  0.50391758  0.90473797  0.32698508    -0.75600
O392        O  0.56117554  0.89475356  0.24631999    -0.80800
C393        C  0.56050177  0.87955272  0.34847675     1.00200
C394        C  0.57354398  0.90422045  0.25198140     1.06200
O395        O  0.56567676  0.89416201  0.35641027    -0.76400
C396        C  0.50409487  0.88943011  0.31768074     1.04500
Fe397      Fe  0.49141627  0.11184952  0.71843416     1.65800
Fe398      Fe  0.47206629  0.14653105  0.75700253     1.73200
Fe399      Fe  0.44989114  0.11839740  0.69900048     1.54400
O400        O  0.46103855  0.11388524  0.64249659    -0.80200
O401        O  0.44955205  0.14241059  0.78574876    -0.78500
O402        O  0.48786925  0.10891841  0.65542619    -0.82700
O403        O  0.47928290  0.08983365  0.73126036    -0.77500
O404        O  0.44424905  0.14214410  0.67762065    -0.79300
O405        O  0.48340232  0.13509456  0.80672108    -0.82100
C406        C  0.46448869  0.08461526  0.72854815     0.98700
C407        C  0.47564792  0.11033695  0.63086220     1.06200
O408        O  0.47112397  0.12558023  0.72479243    -1.11000
O409        O  0.49472309  0.15405611  0.73331674    -0.73500
O410        O  0.50664890  0.13183247  0.70483235    -0.77000
O411        O  0.45248901  0.09370462  0.71687978    -0.77600
C412        C  0.50655931  0.14714860  0.71402926     0.97600
O413        O  0.49723414  0.11329825  0.78080582    -0.75600
O414        O  0.46075393  0.16012737  0.71077069    -0.80800
C415        C  0.43728379  0.13270386  0.78143945     1.00200
C416        C  0.44964831  0.15676407  0.68418183     1.06200
O417        O  0.43610879  0.12218937  0.75228345    -0.76400
C418        C  0.49297792  0.12267495  0.81066433     1.04500
Fe419      Fe  0.49210611  0.92472240  0.81470327     1.65800
Fe420      Fe  0.47261945  0.89043807  0.77449971     1.73200
Fe421      Fe  0.45069640  0.91822872  0.83434976     1.54400
O422        O  0.46211666  0.92418463  0.88992273    -0.80200
O423        O  0.45147435  0.89632107  0.74199290    -0.78500
O424        O  0.48941371  0.92578600  0.87806963    -0.82700
O425        O  0.47985167  0.94709684  0.80680572    -0.77500
O426        O  0.44605352  0.89485580  0.85879787    -0.79300
O427        O  0.48609116  0.90147753  0.72715415    -0.82100
C428        C  0.46488872  0.95193227  0.80541377     0.98700
C429        C  0.47697762  0.92596503  0.90213790     1.06200
O430        O  0.47178221  0.91111486  0.80785565    -1.11000
O431        O  0.49384198  0.88175520  0.80294654    -0.73500
O432        O  0.50746758  0.90440950  0.82364001    -0.77000
O433        O  0.45266635  0.94245049  0.81293715    -0.77600
C434        C  0.50633882  0.88879882  0.81900574     0.97600
O435        O  0.49689748  0.92507034  0.75197212    -0.75600
O436        O  0.45911459  0.87682599  0.81729340    -0.80800
C437        C  0.43846767  0.90459973  0.74972815     1.00200
C438        C  0.44973382  0.88014633  0.84784950     1.06200
O439        O  0.43640839  0.91304767  0.78257342    -0.76400
C440        C  0.49415845  0.91492128  0.72268991     1.04500
Fe441      Fe  0.84793147  0.78147576  0.06670064     1.65800
Fe442      Fe  0.88243847  0.80005514  0.02469134     1.73200
Fe443      Fe  0.85477624  0.82325699  0.08190820     1.54400
O444        O  0.83053952  0.82108430  0.06065817    -0.80200
O445        O  0.89613223  0.81341922  0.06742075    -0.78500
O446        O  0.82582357  0.79380028  0.05590582    -0.82700
O447        O  0.84636977  0.78545566  0.12973816    -0.77500
O448        O  0.86014462  0.83680213  0.02886256    -0.79300
O449        O  0.89054943  0.77861508  0.05395069    -0.82100
C450        C  0.84662377  0.79826327  0.15263240     0.98700
C451        C  0.82107039  0.80879592  0.05343465     1.06200
O452        O  0.86171490  0.80162110  0.05767861    -1.11000
O453        O  0.87113232  0.78654584  0.97800690    -0.73500
O454        O  0.84810042  0.77521308  0.00462003    -0.77000
O455        O  0.84878820  0.81288194  0.13884980    -0.77600
C456        C  0.85801743  0.77789685  0.97477130     0.97600
O457        O  0.86795790  0.76610604  0.07881264    -0.75600
O458        O  0.87749739  0.82136627  0.99098724    -0.80800
C459        C  0.89282704  0.82353287  0.09651430     1.00200
C460        C  0.86921542  0.83454271  0.99716796     1.06200
O461        O  0.87817937  0.82803083  0.10584444    -0.76400
C462        C  0.88347975  0.76667230  0.07259131     1.04500
Fe463      Fe  0.66098663  0.78263637  0.96842884     1.65800
Fe464      Fe  0.62719227  0.80222492  0.01080517     1.73200
Fe465      Fe  0.65457088  0.82431139  0.95021620     1.54400
O466        O  0.67945078  0.82139209  0.96591924    -0.80200
O467        O  0.61304226  0.81385918  0.96623594    -0.78500
O468        O  0.68319379  0.79449393  0.97993080    -0.82700
O469        O  0.66308087  0.78633223  0.90522526    -0.77500
O470        O  0.65169096  0.83805678  0.00404353    -0.79300
O471        O  0.61909612  0.77967631  0.98714552    -0.82100
C472        C  0.66122294  0.79855355  0.88077374     0.98700
C473        C  0.68850729  0.80926815  0.97708513     1.06200
O474        O  0.64759182  0.80307266  0.97650173    -1.11000
O475        O  0.63923824  0.79059017  0.05919507    -0.73500
O476        O  0.66032053  0.77651241  0.03071799    -0.77000
O477        O  0.65800614  0.81321520  0.89290289    -0.77600
C478        C  0.65153752  0.78079704  0.06163516     0.97600
O479        O  0.64072358  0.76778007  0.95593950    -0.75600
O480        O  0.63196843  0.82467988  0.03952265    -0.80800
C481        C  0.61610129  0.82496424  0.93935311     1.00200
C482        C  0.64164414  0.83693336  0.03423999     1.06200
O483        O  0.63062698  0.83023329  0.93131323    -0.76400
C484        C  0.62558193  0.76796025  0.96642802     1.04500
Fe485      Fe  0.84858406  0.75545920  0.56652035     1.65800
Fe486      Fe  0.88320692  0.73695288  0.52497752     1.73200
Fe487      Fe  0.85584750  0.71375242  0.58302415     1.54400
O488        O  0.85144179  0.72435703  0.64035874    -0.80200
O489        O  0.87898895  0.71476636  0.49427331    -0.78500
O490        O  0.84666949  0.75142860  0.62960736    -0.82700
O491        O  0.82655212  0.74307820  0.55534739    -0.77500
O492        O  0.87969452  0.70831595  0.60338180    -0.79300
O493        O  0.87128408  0.74907846  0.47683291    -0.82100
C494        C  0.82161724  0.72812726  0.55673168     0.98700
C495        C  0.84819686  0.73890113  0.65324815     1.06200
O496        O  0.86253067  0.73537274  0.55813355    -1.11000
O497        O  0.89080477  0.75929868  0.55095518    -0.73500
O498        O  0.86845330  0.77101202  0.57917300    -0.77000
O499        O  0.83105853  0.71606556  0.56611007    -0.77600
C500        C  0.88381353  0.77100149  0.57068701     0.97600
O501        O  0.84903788  0.76166155  0.50418024    -0.75600
O502        O  0.89733703  0.72487798  0.56927470    -0.80800
C503        C  0.86980708  0.70208958  0.49898076     1.00200
C504        C  0.89423325  0.71365969  0.59590549     1.06200
O505        O  0.85972697  0.70040114  0.52895556    -0.76400
C506        C  0.85844322  0.75815375  0.47376786     1.04500
Fe507      Fe  0.66196600  0.75460687  0.46754181     1.65800
Fe508      Fe  0.62731690  0.73536572  0.50646078     1.73200
Fe509      Fe  0.65555381  0.71287189  0.44949067     1.54400
O510        O  0.66003062  0.72377686  0.39249642    -0.80200
O511        O  0.63150326  0.71305894  0.53633092    -0.78500
O512        O  0.66466721  0.75079174  0.40450591    -0.82700
O513        O  0.68401515  0.74257263  0.48041098    -0.77500
O514        O  0.63194040  0.70706448  0.42795947    -0.79300
O515        O  0.63861439  0.74713125  0.55588042    -0.82100
C516        C  0.68923435  0.72773349  0.47860635     0.98700
C517        C  0.66326851  0.73842380  0.38028921     1.06200
O518        O  0.64829996  0.73427346  0.47451723    -1.11000
O519        O  0.61971290  0.75780284  0.48143255    -0.73500
O520        O  0.64199538  0.76980242  0.45361181    -0.77000
O521        O  0.68017199  0.71560884  0.46753093    -0.77600
C522        C  0.62662770  0.76959783  0.46193464     0.97600
O523        O  0.66062679  0.76060070  0.52996714    -0.75600
O524        O  0.61388262  0.72366517  0.46050679    -0.80800
C525        C  0.64122236  0.70076242  0.53260608     1.00200
C526        C  0.61733936  0.71251176  0.43405477     1.06200
O527        O  0.65169106  0.69937167  0.50338471    -0.76400
C528        C  0.65114957  0.75655835  0.55984691     1.04500
Fe529      Fe  0.34854739  0.28202018  0.56677510     1.65800
Fe530      Fe  0.38315413  0.30072073  0.52560673     1.73200
Fe531      Fe  0.35589128  0.32358001  0.58465950     1.54400
O532        O  0.33110958  0.32130822  0.56725045    -0.80200
O533        O  0.39729900  0.31233332  0.57044626    -0.78500
O534        O  0.32669850  0.29441626  0.55420475    -0.82700
O535        O  0.34601636  0.28590757  0.62981609    -0.77500
O536        O  0.35983899  0.33723999  0.53113553    -0.79300
O537        O  0.39054835  0.27820595  0.55062731    -0.82100
C538        C  0.34776894  0.29821501  0.65403040     0.98700
C539        C  0.32176692  0.30935024  0.55635615     1.06200
O540        O  0.36251602  0.30212625  0.55896428    -1.11000
O541        O  0.37123100  0.28902242  0.47694442    -0.73500
O542        O  0.34950531  0.27567605  0.50459808    -0.77000
O543        O  0.35141323  0.31274470  0.64174103    -0.77600
C544        C  0.35867705  0.27955882  0.47404291     0.97600
O545        O  0.36838745  0.26674836  0.58056787    -0.75600
O546        O  0.37910997  0.32313664  0.49589676    -0.80800
C547        C  0.39428218  0.32336004  0.59758283     1.00200
C548        C  0.36993059  0.33576949  0.50113493     1.06200
O549        O  0.37978593  0.32878134  0.60530952    -0.76400
C550        C  0.38365917  0.26670150  0.57127143     1.04500
Fe551      Fe  0.16203943  0.28162620  0.47001343     1.65800
Fe552      Fe  0.12747929  0.30044250  0.51095941     1.73200
Fe553      Fe  0.15527338  0.32340346  0.45369376     1.54400
O554        O  0.17989347  0.32067422  0.47203280    -0.80200
O555        O  0.11370967  0.31270004  0.46646754    -0.78500
O556        O  0.18386462  0.29369676  0.48512350    -0.82700
O557        O  0.16539426  0.28610171  0.40743128    -0.77500
O558        O  0.15122678  0.33671082  0.50770798    -0.79300
O559        O  0.11990936  0.27830270  0.48421582    -0.82100
C560        C  0.16376591  0.29854472  0.38360832     0.98700
C561        C  0.18896558  0.30860312  0.48357021     1.06200
O562        O  0.14827796  0.30184141  0.47826404    -1.11000
O563        O  0.13886285  0.28805997  0.55930109    -0.73500
O564        O  0.16036008  0.27445213  0.53153412    -0.77000
O565        O  0.15995252  0.31296537  0.39629444    -0.77600
C566        C  0.15109606  0.27819814  0.56198705     0.97600
O567        O  0.14202005  0.26688068  0.45385362    -0.75600
O568        O  0.13185091  0.32245224  0.54223172    -0.80800
C569        C  0.11695644  0.32374700  0.43954932     1.00200
C570        C  0.14118168  0.33502617  0.53773601     1.06200
O571        O  0.13155367  0.32901477  0.43228053    -0.76400
C572        C  0.12669714  0.26695523  0.46281788     1.04500
Fe573      Fe  0.34698884  0.25453595  0.06708042     1.65800
Fe574      Fe  0.38271518  0.23738998  0.02789558     1.73200
Fe575      Fe  0.35585994  0.21327127  0.08525442     1.54400
O576        O  0.35017734  0.22390012  0.14198446    -0.80200
O577        O  0.37916184  0.21540278  0.99605395    -0.78500
O578        O  0.34473618  0.25075637  0.13014215    -0.82700
O579        O  0.32564306  0.24111688  0.05502029    -0.77500
O580        O  0.37959941  0.20910411  0.10791443    -0.79300
O581        O  0.37106110  0.24953107  0.97946889    -0.82100
C582        C  0.32140942  0.22594233  0.05590179     0.98700
C583        C  0.34640962  0.23840786  0.15427068     1.06200
O584        O  0.36184500  0.23504259  0.06003412    -1.11000
O585        O  0.38936339  0.25962651  0.05550640    -0.73500
O586        O  0.36613753  0.27090994  0.08033816    -0.77000
O587        O  0.33127734  0.21432400  0.06597246    -0.77600
C588        C  0.38166909  0.27118930  0.07402994     0.97600
O589        O  0.34764986  0.26052437  0.00472029    -0.75600
O590        O  0.39687484  0.22547240  0.07217734    -0.80800
C591        C  0.37069121  0.20226840  0.00115449     1.00200
C592        C  0.39400148  0.21466553  0.09992855     1.06200
O593        O  0.36108928  0.19993430  0.03185071    -0.76400
C594        C  0.35774381  0.25777603  0.97526659     1.04500
Fe595      Fe  0.16301048  0.25475232  0.97122545     1.65800
Fe596      Fe  0.12790125  0.23668138  0.01147584     1.73200
Fe597      Fe  0.15493435  0.21338373  0.95269353     1.54400
O598        O  0.15953494  0.22426753  0.89574291    -0.80200
O599        O  0.13214778  0.21461733  0.04248281    -0.78500
O600        O  0.16543816  0.25097188  0.90809370    -0.82700
O601        O  0.18461490  0.24190608  0.98386855    -0.77500
O602        O  0.13111123  0.20841026  0.93178893    -0.79300
O603        O  0.13947465  0.24895696  0.05976786    -0.82100
C604        C  0.18922616  0.22687251  0.98158542     0.98700
C605        C  0.16334755  0.23878364  0.88366270     1.06200
O606        O  0.14862284  0.23491830  0.97854245    -1.11000
O607        O  0.12067197  0.25887062  0.98453403    -0.73500
O608        O  0.14344384  0.27039342  0.95761833    -0.77000
O609        O  0.17967935  0.21517031  0.97023667    -0.77600
C610        C  0.12800305  0.27042796  0.96503489     0.97600
O611        O  0.16213082  0.26104831  0.03340065    -0.75600
O612        O  0.11371959  0.22459454  0.96760028    -0.80800
C613        C  0.14102763  0.20177767  0.03700836     1.00200
C614        C  0.11664824  0.21367145  0.94021408     1.06200
O615        O  0.15070183  0.19987060  0.00628182    -0.76400
C616        C  0.15236452  0.25790082  0.06329258     1.04500
Fe617      Fe  0.99147454  0.11134247  0.81971917     1.65800
Fe618      Fe  0.97408536  0.14709420  0.78080756     1.73200
Fe619      Fe  0.95025942  0.11991265  0.83794151     1.54400
O620        O  0.95144765  0.09538881  0.81806890    -0.80200
O621        O  0.96186921  0.16114296  0.82500048    -0.78500
O622        O  0.97826270  0.08987257  0.80778381    -0.82700
O623        O  0.98778308  0.10898087  0.88286663    -0.77500
O624        O  0.93688398  0.12532783  0.78467870    -0.79300
O625        O  0.99608573  0.15389898  0.80892271    -0.82100
C626        C  0.97539257  0.11031281  0.90694864     0.98700
C627        C  0.96314177  0.08555607  0.80840012     1.06200
O628        O  0.97192008  0.12611035  0.81277240    -1.11000
O629        O  0.98652003  0.13564190  0.73248839    -0.73500
O630        O  0.99743028  0.11208964  0.75731668    -0.77000
O631        O  0.96088943  0.11398008  0.89459110    -0.77600
C632        C  0.99477464  0.12232261  0.72807747     0.97600
O633        O  0.00761770  0.13060645  0.83288557    -0.75600
O634        O  0.95228917  0.14333503  0.74848416    -0.80800
C635        C  0.95125861  0.15807974  0.85308877     1.00200
C636        C  0.93917428  0.13487846  0.75381710     1.06200
O637        O  0.94601452  0.14355785  0.86123287    -0.76400
C638        C  0.00770318  0.14618601  0.82708458     1.04500
Fe639      Fe  0.99208984  0.92583855  0.72169765     1.65800
Fe640      Fe  0.97259253  0.89076385  0.75796402     1.73200
Fe641      Fe  0.95053192  0.91966382  0.70186351     1.54400
O642        O  0.95284478  0.94374186  0.72440635    -0.80200
O643        O  0.95941549  0.87786003  0.71325314    -0.78500
O644        O  0.97995304  0.94805256  0.73327395    -0.82700
O645        O  0.98909682  0.92841285  0.65853150    -0.77500
O646        O  0.93646103  0.91417488  0.75399613    -0.79300
O647        O  0.99413843  0.88278147  0.72910418    -0.82100
C648        C  0.97668578  0.92834918  0.63434953     0.98700
C649        C  0.96501678  0.95299774  0.73395427     1.06200
O650        O  0.97171539  0.91208804  0.72717613    -1.11000
O651        O  0.98574085  0.90101997  0.80688868    -0.73500
O652        O  0.99722990  0.92467293  0.78434719    -0.77000
O653        O  0.96187507  0.92591651  0.64634654    -0.77600
C654        C  0.99418286  0.91414720  0.81266476     0.97600
O655        O  0.00743681  0.90574885  0.70925219    -0.75600
O656        O  0.95111326  0.89573500  0.79069790    -0.80800
C657        C  0.94940061  0.88164497  0.68437243     1.00200
C658        C  0.93831037  0.90461860  0.78501658     1.06200
O659        O  0.94527002  0.89653153  0.67606589    -0.76400
C660        C  0.00651036  0.89007678  0.71296991     1.04500
Fe661      Fe  0.01806043  0.11156418  0.32122352     1.65800
Fe662      Fe  0.03559729  0.14639042  0.27788369     1.73200
Fe663      Fe  0.05964121  0.11960718  0.33541302     1.54400
O664        O  0.04968592  0.11523028  0.39350661    -0.80200
O665        O  0.05763491  0.14260512  0.24645553    -0.78500
O666        O  0.02280591  0.10947271  0.38399533    -0.82700
O667        O  0.03063969  0.08974959  0.30845145    -0.77500
O668        O  0.06475075  0.14373418  0.35496805    -0.79300
O669        O  0.02357041  0.13400159  0.23035537    -0.82100
C670        C  0.04564024  0.08501709  0.30944642     0.98700
C671        C  0.03539024  0.11148812  0.40710193     1.06200
O672        O  0.03778554  0.12583907  0.31147582    -1.11000
O673        O  0.01334859  0.15357762  0.30460439    -0.73500
O674        O  0.00259963  0.13130619  0.33570591    -0.77000
O675        O  0.05756745  0.09463098  0.31894776    -0.77600
C676        C  0.00222879  0.14660609  0.32631866     0.97600
O677        O  0.01105566  0.11203891  0.25937275    -0.75600
O678        O  0.04750059  0.16091595  0.32155483    -0.80800
C679        C  0.07038372  0.13352023  0.25061285     1.00200
C680        C  0.05895275  0.15814659  0.34768038     1.06200
O681        O  0.07239497  0.12349467  0.28056991    -0.76400
C682        C  0.01446400  0.12113906  0.22828429     1.04500
Fe683      Fe  0.01697137  0.92527942  0.22060417     1.65800
Fe684      Fe  0.03511866  0.89008303  0.26050049     1.73200
Fe685      Fe  0.05859079  0.91800671  0.20470271     1.54400
O686        O  0.04823904  0.92360026  0.14754790    -0.80200
O687        O  0.05674676  0.89419410  0.29316919    -0.78500
O688        O  0.02104517  0.92744251  0.15765986    -0.82700
O689        O  0.02945047  0.94725421  0.23288603    -0.77500
O690        O  0.06377845  0.89444744  0.18180768    -0.79300
O691        O  0.02229143  0.90138812  0.30837675    -0.82100
C692        C  0.04445619  0.95198437  0.23386104     0.98700
C693        C  0.03369051  0.92651011  0.13432020     1.06200
O694        O  0.03691035  0.91111223  0.22862332    -1.11000
O695        O  0.01331856  0.88266071  0.23234894    -0.73500
O696        O  0.00132826  0.90552676  0.20738185    -0.77000
O697        O  0.05651297  0.94247436  0.22493375    -0.77600
C698        C  0.00151713  0.88998826  0.21396655     0.97600
O699        O  0.01074212  0.92450935  0.28267126    -0.75600
O700        O  0.04789282  0.87638655  0.21660946    -0.80800
C701        C  0.06966891  0.90298636  0.28845951     1.00200
C702        C  0.05885477  0.87976294  0.18958140     1.06200
O703        O  0.07176781  0.91291938  0.25831804    -0.76400
C704        C  0.01366202  0.91450336  0.31222201     1.04500
C705        C  0.05104155  0.03560749  0.28120278     0.18500
C706        C  0.04165016  0.02960965  0.24770380    -0.10600
C707        C  0.04135842  0.01256348  0.23858865    -0.11400
C708        C  0.05044851  0.00129034  0.26285740     0.20100
C709        C  0.05998233  0.00727629  0.29618961    -0.13500
C710        C  0.06027401  0.02436767  0.30533049    -0.11800
C711        C  0.04955248  0.98363108  0.25390599     0.01100
C712        C  0.04780332  0.96905684  0.24524822    -0.31800
C713        C  0.05061667  0.05317051  0.29144728     0.02400
C714        C  0.04908561  0.06781179  0.29963237    -0.33400
H715        H  0.03439323  0.03810111  0.22886748     0.13500
H716        H  0.03389805  0.00815091  0.21281450     0.13300
H717        H  0.06704742  0.99873366  0.31532562     0.13200
H718        H  0.06754275  0.02878382  0.33143481     0.12200
C719        C  0.01155036  0.92279020  0.92962091     0.18500
C720        C  0.00035145  0.92768398  0.96062625    -0.10600
C721        C  0.00586577  0.92991532  0.00142054    -0.11400
C722        C  0.02259472  0.92728142  0.01138771     0.20100
C723        C  0.03384805  0.92257685  0.98029892    -0.13500
C724        C  0.02832858  0.92034924  0.93945174    -0.11800
C725        C  0.02788089  0.92840671  0.05395729     0.01100
C726        C  0.03119771  0.92823397  0.09045481    -0.31800
C727        C  0.00571411  0.91990198  0.88802156     0.02400
C728        C  0.00055912  0.91728917  0.85348788    -0.33400
H729        H  0.98735119  0.92956348  0.95337274     0.13500
H730        H  0.99703320  0.93343048  0.02533517     0.13300
H731        H  0.04678049  0.92038348  0.98775155     0.13200
H732        H  0.03708479  0.91652264  0.91567149     0.12200
C733        C  0.99679557  0.92478979  0.42851420     0.18500
C734        C  0.98024976  0.92226182  0.44042854    -0.10600
C735        C  0.97550655  0.92472500  0.48178126    -0.11400
C736        C  0.98730473  0.92974014  0.51122953     0.20100
C737        C  0.00378452  0.93251189  0.49914092    -0.13500
C738        C  0.00852221  0.93005225  0.45783706    -0.11800
C739        C  0.98281786  0.93089897  0.55430736     0.01100
C740        C  0.97967421  0.93052167  0.59086040    -0.31800
C741        C  0.00196232  0.92141782  0.38666360     0.02400
C742        C  0.00699833  0.91830457  0.35232190    -0.33400
H743        H  0.97110379  0.91812799  0.41794621     0.13500
H744        H  0.96276494  0.92241488  0.49094324     0.13300
H745        H  0.01303110  0.93625384  0.52180129     0.13200
H746        H  0.02135544  0.93197502  0.44891333     0.12200
C747        C  0.99648927  0.11024876  0.11298343     0.18500
C748        C  0.98044656  0.11521969  0.10155639    -0.10600
C749        C  0.97518931  0.11360604  0.06030865    -0.11400
C750        C  0.98595756  0.10699702  0.03032100     0.20100
C751        C  0.00183689  0.10160437  0.04198285    -0.13500
C752        C  0.00709460  0.10322109  0.08322027    -0.11800
C753        C  0.98123051  0.10691557  0.98717787     0.01100
C754        C  0.97809089  0.10794424  0.95062553    -0.31800
C755        C  0.00241478  0.11329539  0.15451099     0.02400
C756        C  0.00773110  0.11662703  0.18855056    -0.33400
H757        H  0.97215705  0.12072694  0.12430338     0.13500
H758        H  0.96292550  0.11790082  0.05160361     0.13300
H759        H  0.01030847  0.09655791  0.01898152     0.13200
H760        H  0.01953963  0.09938954  0.09165859     0.12200
C761        C  0.02534477  0.11138674  0.53064369     0.18500
C762        C  0.02362971  0.12719286  0.54846905    -0.10600
C763        C  0.01784664  0.12880282  0.58920275    -0.11400
C764        C  0.01374579  0.11461498  0.61231922     0.20100
C765        C  0.01566711  0.09877413  0.59472590    -0.13500
C766        C  0.02145626  0.09716101  0.55389644    -0.11800
C767        C  0.00721499  0.11644901  0.65366483     0.01100
C768        C  0.00155628  0.11875786  0.68785675    -0.31800
C769        C  0.03015471  0.10997977  0.48777617     0.02400
C770        C  0.03312416  0.11000176  0.45109010    -0.33400
H771        H  0.02650439  0.13827404  0.53064551     0.13500
H772        H  0.01637451  0.14111123  0.60249408     0.13300
H773        H  0.01249976  0.08772482  0.61234233     0.13200
H774        H  0.02264584  0.08488150  0.54027775     0.12200
C775        C  0.95822632  0.00198952  0.76459490     0.18500
C776        C  0.95434646  0.01345037  0.73317771    -0.10600
C777        C  0.95367965  0.03050952  0.74203409    -0.11400
C778        C  0.95688096  0.03624618  0.78239197     0.20100
C779        C  0.96047314  0.02476864  0.81398931    -0.13500
C780        C  0.96114403  0.00770665  0.80512967    -0.11800
C781        C  0.95749243  0.05389364  0.79087157     0.01100
C782        C  0.95928375  0.06852741  0.79835863    -0.31800
C783        C  0.95986027  0.98449742  0.75481902     0.02400
C784        C  0.96184359  0.97001924  0.74574491    -0.33400
H785        H  0.95211307  0.00922360  0.70168749     0.13500
H786        H  0.95097948  0.03923904  0.71726039     0.13300
H787        H  0.96306516  0.02903206  0.84528077     0.13200
H788        H  0.96420761  0.99901034  0.82970874     0.12200
C789        C  0.12662549  0.16588127  0.11665081     0.18500
C790        C  0.11480047  0.15489676  0.10021900    -0.10600
C791        C  0.10472809  0.14551662  0.12680018    -0.11400
C792        C  0.10645318  0.14707420  0.16994174     0.20100
C793        C  0.11875121  0.15753816  0.18634850    -0.13500
C794        C  0.12881604  0.16693420  0.15975823    -0.11800
C795        C  0.09439833  0.13960288  0.19722849     0.01100
C796        C  0.08354139  0.13549725  0.22093899    -0.31800
C797        C  0.13478670  0.17757096  0.08961729     0.02400
C798        C  0.13915545  0.18839460  0.06609283    -0.33400
H799        H  0.11284788  0.15414923  0.06692054     0.13500
H800        H  0.09514489  0.13762734  0.11378111     0.13300
H801        H  0.12006668  0.15898780  0.21969645     0.13200
H802        H  0.13775668  0.17553950  0.17281150     0.12200
C803        C  0.04810500  0.17274012  0.86540454     0.18500
C804        C  0.04641978  0.18626160  0.89258474    -0.10600
C805        C  0.06044540  0.19525963  0.90501536    -0.11400
C806        C  0.07621536  0.19079411  0.89027565     0.20100
C807        C  0.07788886  0.17730526  0.86300360    -0.13500
C808        C  0.06386637  0.16830921  0.85057482    -0.11800
C809        C  0.09071745  0.19958926  0.90454696     0.01100
C810        C  0.10274705  0.20640580  0.91900561    -0.31800
C811        C  0.03370098  0.16341554  0.85268949     0.02400
C812        C  0.02175477  0.15555700  0.84144288    -0.33400
H813        H  0.03429604  0.18979408  0.90427014     0.13500
H814        H  0.05901517  0.20560154  0.92634846     0.13300
H815        H  0.09003071  0.17366964  0.85163280     0.13200
H816        H  0.06531728  0.15786669  0.82955983     0.12200
C817        C  0.23826930  0.21959303  0.00907004     0.18500
C818        C  0.24994508  0.22311149  0.97792679    -0.10600
C819        C  0.26696219  0.22280884  0.98692009    -0.11400
C820        C  0.27246305  0.21898116  0.02714317     0.20100
C821        C  0.26080011  0.21520301  0.05816979    -0.13500
C822        C  0.24376196  0.21550732  0.04916615    -0.11800
C823        C  0.28996092  0.21990836  0.03702406     0.01100
C824        C  0.30447203  0.22191438  0.04540517    -0.31800
C825        C  0.22071963  0.22094870  0.00018777     0.02400
C826        C  0.20621083  0.22306748  0.99201333    -0.33400
H827        H  0.24588582  0.22636667  0.94686768     0.13500
H828        H  0.27581285  0.22585783  0.96270003     0.13300
H829        H  0.26485790  0.21232430  0.08945747     0.13200
H830        H  0.23488430  0.21283703  0.07360032     0.12200
C831        C  0.08120701  0.19873425  0.39988281     0.18500
C832        C  0.09689478  0.19705307  0.41826872    -0.10600
C833        C  0.10569937  0.21116309  0.43111590    -0.11400
C834        C  0.09890014  0.22706823  0.42563471     0.20100
C835        C  0.08310626  0.22875881  0.40776583    -0.13500
C836        C  0.07429043  0.21463029  0.39490007    -0.11800
C837        C  0.10827646  0.24157208  0.43788953     0.01100
C838        C  0.11655424  0.25334827  0.44866023    -0.31800
C839        C  0.07264055  0.18423394  0.38430415     0.02400
C840        C  0.06607768  0.17216856  0.36904432    -0.33400
H841        H  0.10241733  0.18485409  0.42214509     0.13500
H842        H  0.11788781  0.20968153  0.44492234     0.13300
H843        H  0.07769648  0.24098078  0.40338792     0.13200
H844        H  0.06219995  0.21611294  0.38056938     0.12200
C845        C  0.16392116  0.24952532  0.76022646     0.18500
C846        C  0.15598839  0.23903562  0.73164409    -0.10600
C847        C  0.15408950  0.24407396  0.69029110    -0.11400
C848        C  0.16010440  0.25961731  0.67747308     0.20100
C849        C  0.16823893  0.26998120  0.70593031    -0.13500
C850        C  0.17013243  0.26495136  0.74722323    -0.11800
C851        C  0.15731907  0.26534136  0.63573744     0.01100
C852        C  0.15464185  0.27093672  0.60166362    -0.31800
C853        C  0.16489742  0.24491533  0.80331926     0.02400
C854        C  0.16481207  0.24175300  0.83991451    -0.33400
H855        H  0.15104233  0.22712709  0.74147649     0.13500
H856        H  0.14770649  0.23599541  0.66853602     0.13300
H857        H  0.17286075  0.28205292  0.69635631     0.13200
H858        H  0.17618577  0.27320530  0.76916335     0.12200
C859        C  0.16124568  0.27734974  0.17807675     0.18500
C860        C  0.17471950  0.27183898  0.20193456    -0.10600
C861        C  0.17664020  0.27739500  0.24284343    -0.11400
C862        C  0.16510309  0.28849572  0.25998486     0.20100
C863        C  0.15182971  0.29427860  0.23582482    -0.13500
C864        C  0.14990703  0.28872141  0.19493841    -0.11800
C865        C  0.16613454  0.29301687  0.30313364     0.01100
C866        C  0.16576268  0.29597880  0.33982461    -0.31800
C867        C  0.15863307  0.27078110  0.13703394     0.02400
C868        C  0.15599616  0.26493154  0.10319706    -0.33400
H869        H  0.18352820  0.26300757  0.18920497     0.13500
H870        H  0.18688611  0.27275813  0.26137058     0.13300
H871        H  0.14277303  0.30277654  0.24889472     0.13200
H872        H  0.13941263  0.29302383  0.17678054     0.12200
C873        C  0.34579846  0.28706547  0.77711292     0.18500
C874        C  0.33953331  0.27145691  0.78854556    -0.10600
C875        C  0.34104177  0.26592426  0.82955254    -0.11400
C876        C  0.34883027  0.27598011  0.85928108     0.20100
C877        C  0.35484082  0.29171903  0.84803688    -0.13500
C878        C  0.35333485  0.29725443  0.80699296    -0.11800
C879        C  0.35130761  0.26983503  0.90077403     0.01100
C880        C  0.35397344  0.26439545  0.93501595    -0.31800
C881        C  0.34541405  0.29209893  0.73425933     0.02400
C882        C  0.34597660  0.29537994  0.69775686    -0.33400
H883        H  0.33378361  0.26343772  0.76558718     0.13500
H884        H  0.33641393  0.25370503  0.83790103     0.13300
H885        H  0.36094635  0.29956316  0.87078930     0.13200
H886        H  0.35832093  0.30930311  0.79839520     0.12200
C887        C  0.34480181  0.25001271  0.27692176     0.18500
C888        C  0.34110401  0.26656195  0.28699704    -0.10600
C889        C  0.34305799  0.27218622  0.32779228    -0.11400
C890        C  0.34873189  0.26129518  0.35865597     0.20100
C891        C  0.35217871  0.24466637  0.34874858    -0.13500
C892        C  0.35022554  0.23903681  0.30790493    -0.11800
C893        C  0.35168072  0.26739306  0.39998709     0.01100
C894        C  0.35467269  0.27285610  0.43402888    -0.31800
C895        C  0.34405043  0.24468732  0.23433988     0.02400
C896        C  0.34449306  0.24122380  0.19794701    -0.33400
H897        H  0.33702921  0.27517228  0.26319937     0.13500
H898        H  0.34042506  0.28509678  0.33511925     0.13300
H899        H  0.35663603  0.23617101  0.37236334     0.13200
H900        H  0.35324220  0.22623263  0.30033456     0.12200
C901        C  0.27244411  0.31478508  0.52917325     0.18500
C902        C  0.26671482  0.31028155  0.48959199    -0.10600
C903        C  0.24965631  0.31008488  0.48105112    -0.11400
C904        C  0.23815877  0.31437823  0.51200229     0.20100
C905        C  0.24387993  0.31901930  0.55152069    -0.13500
C906        C  0.26096114  0.31921879  0.56007072    -0.11800
C907        C  0.22054912  0.31345324  0.50336972     0.01100
C908        C  0.20599725  0.31180498  0.49490764    -0.31800
C909        C  0.29001226  0.31416864  0.53846162     0.02400
C910        C  0.30462562  0.31266988  0.54639772    -0.33400
H911        H  0.27542047  0.30673074  0.46547692     0.13500
H912        H  0.24542380  0.30640106  0.45044093     0.13300
H913        H  0.23514874  0.32229753  0.57581421     0.13200
H914        H  0.26519605  0.32263305  0.59087004     0.12200
C915        C  0.73829003  0.72232944  0.50908809     0.18500
C916        C  0.74332730  0.72228097  0.55082908    -0.10600
C917        C  0.76026932  0.72229149  0.56094243    -0.11400
C918        C  0.77230622  0.72234956  0.52938107     0.20100
C919        C  0.76725598  0.72222759  0.48767529    -0.13500
C920        C  0.75032928  0.72221882  0.47757112    -0.11800
C921        C  0.78978528  0.72323811  0.53958697     0.01100
C922        C  0.80439326  0.72486725  0.54746952    -0.31800
C923        C  0.72084199  0.72315376  0.49855818     0.02400
C924        C  0.70633504  0.72467323  0.48949846    -0.33400
H925        H  0.73417117  0.72244952  0.57552369     0.13500
H926        H  0.76397163  0.72247262  0.59331018     0.13300
H927        H  0.77640359  0.72236007  0.46295861     0.13200
H928        H  0.74663634  0.72234011  0.44519410     0.12200
C929        C  0.92727401  0.84140327  0.62984905     0.18500
C930        C  0.91101900  0.84231189  0.61438263    -0.10600
C931        C  0.90267067  0.82781462  0.60208816    -0.11400
C932        C  0.91047806  0.81225804  0.60517823     0.20100
C933        C  0.92681926  0.81136158  0.62015178    -0.13500
C934        C  0.93517477  0.82587120  0.63245339    -0.11800
C935        C  0.90159738  0.79728828  0.59350536     0.01100
C936        C  0.89370628  0.78509180  0.58350391    -0.31800
C937        C  0.93546392  0.85622101  0.64521227     0.02400
C938        C  0.94199150  0.86821846  0.66107107    -0.33400
H939        H  0.90470973  0.85419140  0.61239167     0.13500
H940        H  0.89005758  0.82872065  0.59058472     0.13300
H941        H  0.93303085  0.79945000  0.62273044     0.13200
H942        H  0.94769804  0.82494804  0.64455320     0.12200
C943        C  0.66116061  0.76196466  0.17638165     0.18500
C944        C  0.65440288  0.74652408  0.18747373    -0.10600
C945        C  0.65611608  0.74062441  0.22811534    -0.11400
C946        C  0.66461741  0.75016163  0.25770266     0.20100
C947        C  0.67159224  0.76547851  0.24641219    -0.13500
C948        C  0.66987512  0.77137750  0.20579774    -0.11800
C949        C  0.66527838  0.74480774  0.30023501     0.01100
C950        C  0.66492981  0.74134076  0.33661477    -0.31800
C951        C  0.65851325  0.76847838  0.13539558     0.02400
C952        C  0.65562988  0.77410290  0.10150885    -0.33400
H953        H  0.64756500  0.73919485  0.16491268     0.13500
H954        H  0.65056961  0.72883334  0.23664730     0.13300
H955        H  0.67807944  0.77300445  0.26921970     0.13200
H956        H  0.67506656  0.78336094  0.19754147     0.12200
C957        C  0.66180895  0.78632383  0.75814547     0.18500
C958        C  0.65200254  0.79496579  0.72938683    -0.10600
C959        C  0.65062624  0.78917496  0.68855376    -0.11400
C960        C  0.65903534  0.77471573  0.67634040     0.20100
C961        C  0.66895128  0.76614519  0.70500049    -0.13500
C962        C  0.67032998  0.77193883  0.74583905    -0.11800
C963        C  0.65702894  0.76841325  0.63482586     0.01100
C964        C  0.65469135  0.76305037  0.60035698    -0.31800
C965        C  0.66249613  0.79172554  0.80071978     0.02400
C966        C  0.66237470  0.79541250  0.83701929    -0.33400
H967        H  0.64526413  0.80603581  0.73866552     0.13500
H968        H  0.64286062  0.79584712  0.66666036     0.13300
H969        H  0.67544235  0.75490319  0.69591826     0.13200
H970        H  0.67785214  0.76509569  0.76793690     0.12200
C971        C  0.84979934  0.77701937  0.35826452     0.18500
C972        C  0.86372525  0.78255856  0.33611998    -0.10600
C973        C  0.86200531  0.78819219  0.29526896    -0.11400
C974        C  0.84634391  0.78832770  0.27633102     0.20100
C975        C  0.83235396  0.78301830  0.29863371    -0.13500
C976        C  0.83407692  0.77737589  0.33957855    -0.11800
C977        C  0.84492991  0.79299481  0.23332578     0.01100
C978        C  0.84497461  0.79594708  0.19660680    -0.31800
C979        C  0.85185108  0.77053797  0.39962876     0.02400
C980        C  0.85446333  0.76491111  0.43373608    -0.33400
H981        H  0.87594741  0.78229763  0.35024275     0.13500
H982        H  0.87291982  0.79217221  0.27821440     0.13300
H983        H  0.82019452  0.78297996  0.28416859     0.13200
H984        H  0.82322971  0.77308406  0.35640971     0.12200
C985        C  0.84636625  0.74886794  0.77682784     0.18500
C986        C  0.83838036  0.76341323  0.79004367    -0.10600
C987        C  0.83977434  0.76858019  0.83133902    -0.11400
C988        C  0.84916741  0.75921285  0.85951286     0.20100
C989        C  0.85691455  0.74450097  0.84649452    -0.13500
C990        C  0.85552071  0.73933091  0.80516508    -0.11800
C991        C  0.85158383  0.76519833  0.90108976     0.01100
C992        C  0.85424022  0.77079383  0.93512730    -0.31800
C993        C  0.84602060  0.74435253  0.73369562     0.02400
C994        C  0.84654959  0.74144495  0.69704205    -0.33400
H995        H  0.83136969  0.77093085  0.76823613     0.13500
H996        H  0.83382210  0.78002275  0.84108955     0.13300
H997        H  0.86428816  0.73722526  0.86805706     0.13200
H998        H  0.86183594  0.72812501  0.79512801     0.12200
C999        C  0.77193541  0.81381154  0.02393201     0.18500
C1000       C  0.76652795  0.81751712  0.98354371    -0.10600
C1001       C  0.74952320  0.81759903  0.97421726    -0.11400
C1002       C  0.73780347  0.81397562  0.00519908     0.20100
C1003       C  0.74321446  0.81031334  0.04560218    -0.13500
C1004       C  0.76020879  0.81023351  0.05492429    -0.11800
C1005       C  0.72030296  0.81347356  0.99527103     0.01100
C1006       C  0.70571437  0.81221531  0.98690299    -0.31800
C1007       C  0.78947162  0.81318277  0.03342904     0.02400
C1008       C  0.80401525  0.81181726  0.04218156    -0.33400
H1009       H  0.77544710  0.82020982  0.95922063     0.13500
H1010       H  0.74552649  0.82034778  0.94280729     0.13300
H1011       H  0.73431181  0.80738625  0.06979803     0.13200
H1012       H  0.76420848  0.80725261  0.08620213     0.12200
C1013       C  0.90209179  0.89133817  0.86546201     0.18500
C1014       C  0.90391390  0.89261313  0.90866247    -0.10600
C1015       C  0.89425603  0.88267043  0.93500941    -0.11400
C1016       C  0.88276047  0.87138711  0.91830739     0.20100
C1017       C  0.88034424  0.87074447  0.87521444    -0.13500
C1018       C  0.88998134  0.88070247  0.84887859    -0.11800
C1019       C  0.87518545  0.85906911  0.94484925     0.01100
C1020       C  0.87111317  0.84794357  0.96794131    -0.31800
C1021       C  0.91405636  0.89901467  0.83817203     0.02400
C1022       C  0.92494209  0.90297865  0.81433188    -0.33400
H1023       H  0.91333417  0.90064634  0.92185730     0.13500
H1024       H  0.89634701  0.88318130  0.96828574     0.13300
H1025       H  0.87162252  0.86198545  0.86189590     0.13200
H1026       H  0.88857093  0.87947926  0.81549466     0.12200
C1027       C  0.96102589  0.86261369  0.17922507     0.18500
C1028       C  0.94512548  0.86910242  0.18649495    -0.10600
C1029       C  0.93104163  0.86038272  0.17323340    -0.11400
C1030       C  0.93276800  0.84510722  0.15267887     0.20100
C1031       C  0.94864785  0.83841860  0.14627358    -0.13500
C1032       C  0.96273961  0.84714289  0.15954361    -0.11800
C1033       C  0.91835667  0.83685735  0.13588130     0.01100
C1034       C  0.90648653  0.83052990  0.11930090    -0.31800
C1035       C  0.97553583  0.87205599  0.19091722     0.02400
C1036       C  0.98750991  0.88021376  0.20075131    -0.33400
H1037       H  0.94362981  0.88103036  0.20174565     0.13500
H1038       H  0.91883902  0.86570834  0.17824121     0.13300
H1039       H  0.95014789  0.82664420  0.13029396     0.13200
H1040       H  0.97495748  0.84197454  0.15381450     0.12200
C1041       C  0.57525415  0.84616128  0.88667443     0.18500
C1042       C  0.57620984  0.85740535  0.85348238    -0.10600
C1043       C  0.56184584  0.86528823  0.83899769    -0.11400
C1044       C  0.54645908  0.86198196  0.85765605     0.20100
C1045       C  0.54547277  0.85062343  0.89062424    -0.13500
C1046       C  0.55984235  0.84273474  0.90510955    -0.11800
C1047       C  0.53184294  0.87069459  0.84383643     0.01100
C1048       C  0.51998411  0.87865170  0.83247129    -0.31800
C1049       C  0.59010268  0.83848678  0.90261301     0.02400
C1050       C  0.60226862  0.83222769  0.91788516    -0.33400
H1051       H  0.58806316  0.86019425  0.83909310     0.13500
H1052       H  0.56276070  0.87409339  0.81358053     0.13300
H1053       H  0.53365220  0.84801305  0.90538915     0.13200
H1054       H  0.55896663  0.83410189  0.93090416     0.12200
C1055       C  0.41082402  0.22627542  0.60733235     0.18500
C1056       C  0.41179120  0.21246194  0.58080447    -0.10600
C1057       C  0.42024839  0.19809977  0.59343492    -0.11400
C1058       C  0.42778907  0.19749139  0.63265480     0.20100
C1059       C  0.42695691  0.21136679  0.65899287    -0.13500
C1060       C  0.41850347  0.22571402  0.64637852    -0.11800
C1061       C  0.43591645  0.18253159  0.64670632     0.01100
C1062       C  0.44239646  0.17039301  0.66170476    -0.31800
C1063       C  0.40163637  0.24084523  0.59488928     0.02400
C1064       C  0.39359936  0.25280708  0.58438045    -0.33400
H1065       H  0.40587678  0.21273975  0.55056540     0.13500
H1066       H  0.42075873  0.18744007  0.57285207     0.13300
H1067       H  0.43269294  0.21102603  0.68944847     0.13200
H1068       H  0.41782094  0.23629277  0.66719806     0.12200
C1069       C  0.38373184  0.16705022  0.91727525     0.18500
C1070       C  0.38376059  0.17087084  0.87479811    -0.10600
C1071       C  0.39273056  0.16098105  0.84698090    -0.11400
C1072       C  0.40173326  0.14723235  0.86148968     0.20100
C1073       C  0.40121399  0.14303969  0.90374003    -0.13500
C1074       C  0.39221799  0.15293215  0.93158672    -0.11800
C1075       C  0.41309425  0.13891691  0.83392779     0.01100
C1076       C  0.42379407  0.13449209  0.81017334    -0.31800
C1077       C  0.37668544  0.17862147  0.94652399     0.02400
C1078       C  0.37275553  0.18916640  0.97130829    -0.33400
H1079       H  0.37742250  0.18186463  0.86344469     0.13500
H1080       H  0.39323170  0.16447365  0.81445190     0.13300
H1081       H  0.40830809  0.13257311  0.91538815     0.13200
H1082       H  0.39244488  0.14997325  0.96445539     0.12200
C1083       C  0.45997217  0.00104530  0.77507702     0.18500
C1084       C  0.44581591  0.01069060  0.78318208    -0.10600
C1085       C  0.44572978  0.02771869  0.77359807    -0.11400
C1086       C  0.45980191  0.03519021  0.75587030     0.20100
C1087       C  0.47389105  0.02549956  0.74753471    -0.13500
C1088       C  0.47397675  0.00851081  0.75709530    -0.11800
C1089       C  0.46003291  0.05279650  0.74673525     0.01100
C1090       C  0.46136882  0.06743870  0.73872506    -0.31800
C1091       C  0.46038688  0.98359646  0.78582527     0.02400
C1092       C  0.46180285  0.96905897  0.79480446    -0.33400
H1093       H  0.43491176  0.00508378  0.79713437     0.13500
H1094       H  0.43475740  0.03506155  0.78024280     0.13300
H1095       H  0.48485854  0.03110531  0.73388350     0.13200
H1096       H  0.48501040  0.00121742  0.75072310     0.12200
C1097       C  0.59922826  0.81032621  0.42822381     0.18500
C1098       C  0.58306108  0.80901739  0.41232031    -0.10600
C1099       C  0.57446189  0.82332376  0.39971584    -0.11400
C1100       C  0.58196387  0.83903105  0.40300204     0.20100
C1101       C  0.59800431  0.84034489  0.41959083    -0.13500
C1102       C  0.60659231  0.82605824  0.43217323    -0.11800
C1103       C  0.57367596  0.85366321  0.38715418     0.01100
C1104       C  0.56738037  0.86574542  0.37123931    -0.31800
C1105       C  0.60844697  0.79558889  0.43964711     0.02400
C1106       C  0.61660077  0.78355871  0.44930916    -0.33400
H1107       H  0.57720678  0.79694157  0.40912120     0.13500
H1108       H  0.56209509  0.82211000  0.38676821     0.13300
H1109       H  0.60398452  0.85238472  0.42212998     0.13200
H1110       H  0.61907147  0.82725991  0.44443569     0.12200
C1111       C  0.60978780  0.89182785  0.17094109     0.18500
C1112       C  0.60796662  0.89413706  0.12801448    -0.10600
C1113       C  0.61753120  0.88476429  0.10024720    -0.11400
C1114       C  0.62894224  0.87303917  0.11527210     0.20100
C1115       C  0.63126209  0.87125049  0.15819254    -0.13500
C1116       C  0.62171161  0.88063197  0.18595156    -0.11800
C1117       C  0.63647073  0.86136925  0.08701108     0.01100
C1118       C  0.64035347  0.85049903  0.06306020    -0.31800
C1119       C  0.59801396  0.89912446  0.19927667     0.02400
C1120       C  0.58713885  0.90285224  0.22332429    -0.33400
H1121       H  0.59864469  0.90258196  0.11603911     0.13500
H1122       H  0.61546477  0.88609538  0.06710499     0.13300
H1123       H  0.63986770  0.86207603  0.17017755     0.13200
H1124       H  0.62307409  0.87857792  0.21909246     0.12200
C1125       C  0.48825545  0.92741412  0.02474761     0.18500
C1126       C  0.49977365  0.93879504  0.04076925    -0.10600
C1127       C  0.50552747  0.93701961  0.08150732    -0.11400
C1128       C  0.49977554  0.92385232  0.10615921     0.20100
C1129       C  0.48806063  0.91265053  0.09032524    -0.13500
C1130       C  0.48231470  0.91442440  0.04965452    -0.11800
C1131       C  0.50628381  0.92138663  0.14715476     0.01100
C1132       C  0.51169303  0.91854590  0.18124313    -0.31800
C1133       C  0.48335471  0.92831892  0.98199406     0.02400
C1134       C  0.47998731  0.92785611  0.94562170    -0.33400
H1135       H  0.50452279  0.94880316  0.02156721     0.13500
H1136       H  0.51463808  0.94571148  0.09351908     0.13300
H1137       H  0.48359542  0.90240247  0.10916512     0.13200
H1138       H  0.47349833  0.90548926  0.03736524     0.12200
C1139       C  0.51124639  0.92535609  0.60656208     0.18500
C1140       C  0.49974677  0.92847838  0.57486585    -0.10600
C1141       C  0.50518464  0.93033696  0.53389426    -0.11400
C1142       C  0.52212789  0.92908999  0.52451106     0.20100
C1143       C  0.53367803  0.92639758  0.55635425    -0.13500
C1144       C  0.52823573  0.92454211  0.59736511    -0.11800
C1145       C  0.52743942  0.92934950  0.48192246     0.01100
C1146       C  0.53107669  0.92840753  0.44571607    -0.31800
C1147       C  0.50551222  0.92215072  0.64804800     0.02400
C1148       C  0.50044251  0.91891186  0.68230006    -0.33400
H1149       H  0.48658452  0.92909118  0.58168142     0.13500
H1150       H  0.49614728  0.93232824  0.50939712     0.13300
H1151       H  0.54679411  0.92532705  0.54934750     0.13200
H1152       H  0.53721921  0.92209505  0.62171980     0.12200
C1153       C  0.46324557  0.17553698  0.17656222     0.18500
C1154       C  0.45173704  0.18125372  0.20602888    -0.10600
C1155       C  0.43761885  0.19005068  0.19321336    -0.11400
C1156       C  0.43496143  0.19317149  0.15086925     0.20100
C1157       C  0.44657917  0.18762845  0.12150393    -0.13500
C1158       C  0.46067162  0.17884124  0.13429792    -0.11800
C1159       C  0.42012962  0.20154765  0.13703961     0.01100
C1160       C  0.40793271  0.20791263  0.12212951    -0.31800
C1161       C  0.47746152  0.16594093  0.18949593     0.02400
C1162       C  0.48918080  0.15761585  0.20021572    -0.33400
H1163       H  0.45358756  0.17875923  0.23879771     0.13500
H1164       H  0.42871326  0.19424062  0.21620119     0.13300
H1165       H  0.44464205  0.18993444  0.08867526     0.13200
H1166       H  0.46945966  0.17447614  0.11122050     0.12200
C1167       C  0.52183879  0.11179601  0.00922180     0.18500
C1168       C  0.51127147  0.12495462  0.99850037    -0.10600
C1169       C  0.50562658  0.12657702  0.95770341    -0.11400
C1170       C  0.51051787  0.11504932  0.92747939     0.20100
C1171       C  0.52110211  0.10188069  0.93811563    -0.13500
C1172       C  0.52675947  0.10025294  0.97901373    -0.11800
C1173       C  0.50465256  0.11686980  0.88564047     0.01100
C1174       C  0.49941301  0.11915211  0.85111005    -0.31800
C1175       C  0.52740389  0.11022213  0.05140093     0.02400
C1176       C  0.53107221  0.11004696  0.08764239    -0.33400
H1177       H  0.50738807  0.13392467  0.02167553     0.13500
H1178       H  0.49744225  0.13681281  0.94972115     0.13300
H1179       H  0.52494755  0.09291813  0.91489407     0.13200
H1180       H  0.53492389  0.09001663  0.98708067     0.12200
C1181       C  0.48726000  0.10861540  0.50853247     0.18500
C1182       C  0.47555205  0.11062060  0.47673744    -0.10600
C1183       C  0.48086419  0.11268421  0.43568599    -0.11400
C1184       C  0.49787805  0.11275585  0.42652061     0.20100
C1185       C  0.50954487  0.11053196  0.45826058    -0.13500
C1186       C  0.50424410  0.10846702  0.49921906    -0.11800
C1187       C  0.50348603  0.11568445  0.38489016     0.01100
C1188       C  0.50877741  0.11860104  0.35072305    -0.31800
C1189       C  0.48204646  0.10778612  0.55106228     0.02400
C1190       C  0.47866288  0.10830481  0.58742188    -0.33400
H1191       H  0.46238061  0.11088232  0.48377425     0.13500
H1192       H  0.47176977  0.11446725  0.41128929     0.13300
H1193       H  0.52273573  0.11064643  0.45141990     0.13200
H1194       H  0.51337454  0.10705999  0.52369521     0.12200
C1195       C  0.55042774  0.03552826  0.25617493     0.18500
C1196       C  0.56113217  0.02939183  0.28697910    -0.10600
C1197       C  0.56140021  0.01233364  0.29632269    -0.11400
C1198       C  0.55096917  0.00127396  0.27493329     0.20100
C1199       C  0.54035587  0.00741069  0.24395661    -0.13500
C1200       C  0.54008788  0.02444385  0.23462755    -0.11800
C1201       C  0.55068297  0.98375871  0.28554196     0.01100
C1202       C  0.54939259  0.96916925  0.29443359    -0.31800
C1203       C  0.54968875  0.05317467  0.24720159     0.02400
C1204       C  0.54815479  0.06781907  0.23917720    -0.33400
H1205       H  0.56915896  0.03779823  0.30399784     0.13500
H1206       H  0.56961569  0.00780144  0.32045748     0.13300
H1207       H  0.53216792  0.99904841  0.22727524     0.13200
H1208       H  0.53171169  0.02898848  0.21084883     0.12200
C1209       C  0.91029747  0.72656339  0.11319802     0.18500
C1210       C  0.90238165  0.71499692  0.13914518    -0.10600
C1211       C  0.91088479  0.70081199  0.15279382    -0.11400
C1212       C  0.92737812  0.69804661  0.14058684     0.20100
C1213       C  0.93531450  0.70961389  0.11463739    -0.13500
C1214       C  0.92679875  0.72381711  0.10096515    -0.11800
C1215       C  0.93616419  0.68353107  0.15548926     0.01100
C1216       C  0.94311153  0.67153585  0.17011222    -0.31800
C1217       C  0.90139741  0.74110906  0.09895724     0.02400
C1218       C  0.89348067  0.75297921  0.08706277    -0.33400
H1219       H  0.88963358  0.71694489  0.14882983     0.13500
H1220       H  0.90460783  0.69201819  0.17296310     0.13300
H1221       H  0.94807567  0.70767685  0.10507359     0.13200
H1222       H  0.93307322  0.73264427  0.08089113     0.12200
C1223       C  0.88451840  0.66551267  0.42114113     0.18500
C1224       C  0.89666632  0.65504620  0.43823341    -0.10600
C1225       C  0.90665485  0.64527694  0.41229949    -0.11400
C1226       C  0.90452879  0.64590049  0.36910598     0.20100
C1227       C  0.89189146  0.65580494  0.35214794    -0.13500
C1228       C  0.88191479  0.66559320  0.37808415    -0.11800
C1229       C  0.91656222  0.63821010  0.34203707     0.01100
C1230       C  0.92742958  0.63417681  0.31822270    -0.31800
C1231       C  0.87633373  0.67758333  0.44721738     0.02400
C1232       C  0.87184743  0.68860553  0.47010573    -0.33400
H1233       H  0.89892800  0.65500943  0.47146400     0.13500
H1234       H  0.91649520  0.63783671  0.42576698     0.13300
H1235       H  0.89024972  0.65654607  0.31874055     0.13200
H1236       H  0.87270295  0.67375562  0.36444502     0.12200
C1237       C  0.96237600  0.53599944  0.26048176     0.18500
C1238       C  0.96867374  0.53055823  0.29880649    -0.10600
C1239       C  0.96847490  0.51359112  0.30904257    -0.11400
C1240       C  0.96197659  0.50188731  0.28106109     0.20100
C1241       C  0.95566110  0.50733004  0.24276448    -0.13500
C1242       C  0.95585967  0.52430042  0.23252676    -0.11800
C1243       C  0.96222351  0.48431221  0.29118262     0.01100
C1244       C  0.96322609  0.46964390  0.29955680    -0.31800
C1245       C  0.96298529  0.55348325  0.24950571     0.02400
C1246       C  0.96421142  0.56805706  0.24031974    -0.33400
H1247       H  0.97383403  0.53941812  0.32066913     0.13500
H1248       H  0.97348958  0.50959053  0.33865793     0.13300
H1249       H  0.95068406  0.49844591  0.22070026     0.13200
H1250       H  0.95102778  0.52828245  0.20270658     0.12200
C1251       C  0.07666826  0.34561690  0.38517049     0.18500
C1252       C  0.07673165  0.36291139  0.37952827    -0.10600
C1253       C  0.06236857  0.37110465  0.36604735    -0.11400
C1254       C  0.04780426  0.36208012  0.35813170     0.20100
C1255       C  0.04776915  0.34474898  0.36334829    -0.13500
C1256       C  0.06215511  0.33654266  0.37685702    -0.11800
C1257       C  0.03292003  0.37071022  0.34529471     0.01100
C1258       C  0.02081759  0.37857614  0.33485864    -0.31800
C1259       C  0.09125576  0.33738091  0.40127853     0.02400
C1260       C  0.10325509  0.33096361  0.41716757    -0.33400
H1261       H  0.08782885  0.37008960  0.38603156     0.13500
H1262       H  0.06257588  0.38449959  0.36217040     0.13300
H1263       H  0.03659958  0.33761468  0.35736019     0.13200
H1264       H  0.06190421  0.32317640  0.38128118     0.12200
C1265       C  0.93389464  0.69031361  0.64935057     0.18500
C1266       C  0.94683665  0.69886596  0.66920620    -0.10600
C1267       C  0.96100410  0.69025632  0.68254874    -0.11400
C1268       C  0.96232999  0.67304768  0.67604616     0.20100
C1269       C  0.94926015  0.66446507  0.65683604    -0.13500
C1270       C  0.93510729  0.67306505  0.64351212    -0.11800
C1271       C  0.97718012  0.66422314  0.68825155     0.01100
C1272       C  0.98946810  0.65654059  0.69814098    -0.31800
C1273       C  0.91969725  0.69923949  0.63336409     0.02400
C1274       C  0.90796906  0.70620598  0.61765629    -0.33400
H1275       H  0.94607828  0.71219781  0.67384798     0.13500
H1276       H  0.97099541  0.69704027  0.69743387     0.13300
H1277       H  0.95010033  0.65116776  0.65168712     0.13200
H1278       H  0.92521660  0.66630282  0.62814072     0.12200
C1279       C  0.02462533  0.60588808  0.50781372     0.18500
C1280       C  0.00832142  0.60205551  0.49601660    -0.10600
C1281       C  0.00330438  0.60425554  0.45479731    -0.11400
C1282       C  0.01457879  0.61030983  0.42524690     0.20100
C1283       C  0.03103475  0.61360504  0.43673516    -0.13500
C1284       C  0.03605414  0.61140425  0.47797537    -0.11800
C1285       C  0.00897098  0.61408425  0.38389932     0.01100
C1286       C  0.00377017  0.61778080  0.35003361    -0.31800
C1287       C  0.02914760  0.60564280  0.55101449     0.02400
C1288       C  0.03219540  0.60683376  0.58754195    -0.33400
H1289       H  0.99935405  0.59787264  0.51893374     0.13500
H1290       H  0.99054796  0.60169900  0.44623844     0.13300
H1291       H  0.03984628  0.61832174  0.41409511     0.13200
H1292       H  0.04865864  0.61449267  0.48683798     0.12200
C1293       C  0.98692505  0.61252418  0.00800014     0.18500
C1294       C  0.98951228  0.59833788  0.98351387    -0.10600
C1295       C  0.99491169  0.60002127  0.94237229    -0.11400
C1296       C  0.99774882  0.61588331  0.92569258     0.20100
C1297       C  0.99494823  0.63005227  0.95004038    -0.13500
C1298       C  0.98955555  0.62837244  0.99109680    -0.11800
C1299       C  0.00398902  0.61770713  0.88408006     0.01100
C1300       C  0.00955527  0.61983831  0.84973254    -0.31800
C1301       C  0.98231190  0.61095862  0.05098618     0.02400
C1302       C  0.97932905  0.61080061  0.08767487    -0.33400
H1303       H  0.98758361  0.58602757  0.99636255     0.13500
H1304       H  0.99707554  0.58897843  0.92377365     0.13300
H1305       H  0.99713658  0.64236650  0.93746128     0.13200
H1306       H  0.98766180  0.63942516  0.00985814     0.12200
C1307       C  0.02517936  0.42743729  0.02977211     0.18500
C1308       C  0.01296311  0.43828284  0.04489519    -0.10600
C1309       C  0.00704160  0.43650311  0.08552595    -0.11400
C1310       C  0.01331457  0.42386554  0.11107986     0.20100
C1311       C  0.02575065  0.41323214  0.09620169    -0.13500
C1312       C  0.03166587  0.41500982  0.05560861    -0.11800
C1313       C  0.00660760  0.42134764  0.15198085     0.01100
C1314       C  0.00098568  0.41856424  0.18596318    -0.31800
C1315       C  0.03015870  0.42823226  0.98693468     0.02400
C1316       C  0.03334210  0.42782071  0.95037782    -0.33400
H1317       H  0.00778143  0.44784914  0.02503607     0.13500
H1318       H  0.99738194  0.44476447  0.09674000     0.13300
H1319       H  0.03064144  0.40339629  0.11570129     0.13200
H1320       H  0.04102774  0.40647454  0.04408232     0.12200
C1321       C  0.99667877  0.42067463  0.61263393     0.18500
C1322       C  0.99256811  0.43635522  0.59662493    -0.10600
C1323       C  0.98760321  0.43792494  0.55516450    -0.11400
C1324       C  0.98674219  0.42382500  0.52967275     0.20100
C1325       C  0.99061442  0.40811541  0.54588333    -0.13500
C1326       C  0.99557333  0.40654727  0.58729735    -0.11800
C1327       C  0.98249090  0.42545057  0.48651734     0.01100
C1328       C  0.97957300  0.42595115  0.44984573    -0.31800
C1329       C  0.00265574  0.41908760  0.65448818     0.02400
C1330       C  0.00829622  0.41712423  0.68877872    -0.33400
H1331       H  0.99343026  0.44734901  0.61596465     0.13500
H1332       H  0.98466560  0.45013931  0.54283951     0.13300
H1333       H  0.99002527  0.39714553  0.52637987     0.13200
H1334       H  0.99877587  0.39436175  0.59939457     0.12200
C1335       C  0.05124301  0.53567971  0.75943617     0.18500
C1336       C  0.03962768  0.52513280  0.74044013    -0.10600
C1337       C  0.03933460  0.50813099  0.74998709    -0.11400
C1338       C  0.05065612  0.50149333  0.77863345     0.20100
C1339       C  0.06231613  0.51201807  0.79759779    -0.13500
C1340       C  0.06260950  0.52905317  0.78803320    -0.11800
C1341       C  0.04999148  0.48398828  0.78903693     0.01100
C1342       C  0.04856698  0.46939201  0.79760422    -0.31800
C1343       C  0.05115464  0.55328819  0.75001997     0.02400
C1344       C  0.04990628  0.56789090  0.74134757    -0.33400
H1345       H  0.03072450  0.53007510  0.71840261     0.13500
H1346       H  0.03021072  0.50017649  0.73520067     0.13300
H1347       H  0.07110365  0.50708098  0.81992140     0.13200
H1348       H  0.07161860  0.53705435  0.80308404     0.12200
C1349       C  0.10216745  0.31129010  0.92649062     0.18500
C1350       C  0.11078700  0.32385022  0.90529822    -0.10600
C1351       C  0.10245725  0.33821934  0.89235118    -0.11400
C1352       C  0.08546497  0.34011895  0.90058001     0.20100
C1353       C  0.07685315  0.32758681  0.92190954    -0.13500
C1354       C  0.08518895  0.31320868  0.93486891    -0.11800
C1355       C  0.07679713  0.35464162  0.88579104     0.01100
C1356       C  0.06976793  0.36650349  0.87099645    -0.31800
C1357       C  0.11079392  0.29651229  0.93974392     0.02400
C1358       C  0.11840790  0.28440198  0.95103929    -0.33400
H1359       H  0.12391748  0.32250974  0.89867802     0.13500
H1360       H  0.10922866  0.34778332  0.87570231     0.13300
H1361       H  0.06369872  0.32888128  0.92825949     0.13200
H1362       H  0.07840203  0.30358680  0.95126084     0.12200
C1363       C  0.10761166  0.39109543  0.66944680     0.18500
C1364       C  0.10483341  0.39131275  0.62648091    -0.10600
C1365       C  0.11462894  0.38154789  0.60013268    -0.11400
C1366       C  0.12723783  0.37148453  0.61660052     0.20100
C1367       C  0.13050064  0.37182276  0.65936462    -0.13500
C1368       C  0.12071050  0.38161672  0.68573287    -0.11800
C1369       C  0.13521866  0.35937742  0.59030286     0.01100
C1370       C  0.13942645  0.34838892  0.56702360    -0.31800
C1371       C  0.09577386  0.39871378  0.69711916     0.02400
C1372       C  0.08501865  0.40272992  0.72123802    -0.33400
H1373       H  0.09462080  0.39842480  0.61355906     0.13500
H1374       H  0.11186851  0.38125069  0.56718019     0.13300
H1375       H  0.14009433  0.36396039  0.67253439     0.13200
H1376       H  0.12285421  0.38119489  0.71896189     0.12200
C1377       C  0.12742351  0.87001121  0.41796878     0.18500
C1378       C  0.11946092  0.88435363  0.43274159    -0.10600
C1379       C  0.10900895  0.89348379  0.40652883    -0.11400
C1380       C  0.10649033  0.88828540  0.36545358     0.20100
C1381       C  0.11495889  0.87430989  0.35025778    -0.13500
C1382       C  0.12538982  0.86518358  0.37645020    -0.11800
C1383       C  0.09406637  0.89615490  0.34001114     0.01100
C1384       C  0.08298468  0.90065077  0.31746366    -0.31800
C1385       C  0.13563211  0.85901394  0.44662500     0.02400
C1386       C  0.13991816  0.84866312  0.47150332    -0.33400
H1387       H  0.12075120  0.88805697  0.46499332     0.13500
H1388       H  0.10241642  0.90416614  0.41870294     0.13300
H1389       H  0.11298063  0.87008136  0.31862860     0.13200
H1390       H  0.13127045  0.85398652  0.36487064     0.12200
C1391       C  0.07577341  0.84656459  0.64752745     0.18500
C1392       C  0.07574294  0.86396551  0.65073451    -0.10600
C1393       C  0.06140712  0.87237252  0.66368259    -0.11400
C1394       C  0.04694634  0.86346888  0.67349290     0.20100
C1395       C  0.04694753  0.84605531  0.67026519    -0.13500
C1396       C  0.06130557  0.83763513  0.65729011    -0.11800
C1397       C  0.03222407  0.87226702  0.68699054     0.01100
C1398       C  0.02028044  0.88015026  0.69856619    -0.31800
C1399       C  0.09049736  0.83800511  0.63309634     0.02400
C1400       C  0.10269756  0.83129577  0.61886991    -0.33400
H1401       H  0.08678685  0.87104403  0.64307366     0.13500
H1402       H  0.06159546  0.88582420  0.66599658     0.13300
H1403       H  0.03586603  0.83900190  0.67771246     0.13200
H1404       H  0.06110647  0.82419182  0.65473223     0.12200
C1405       C  0.08411924  0.69737391  0.63329080     0.18500
C1406       C  0.08241269  0.71219885  0.65590924    -0.10600
C1407       C  0.09126754  0.72644772  0.64413192    -0.11400
C1408       C  0.10190951  0.72597359  0.60965065     0.20100
C1409       C  0.10355682  0.71117635  0.58690053    -0.13500
C1410       C  0.09470166  0.69692055  0.59868926    -0.11800
C1411       C  0.11119349  0.74059308  0.59767369     0.01100
C1412       C  0.11909315  0.75264467  0.58693416    -0.31800
C1413       C  0.07547057  0.68255721  0.64669199     0.02400
C1414       C  0.06857056  0.67049646  0.66108380    -0.33400
H1415       H  0.07434250  0.71270179  0.68284115     0.13500
H1416       H  0.08988030  0.73778893  0.66201263     0.13300
H1417       H  0.11174570  0.71063833  0.56020323     0.13200
H1418       H  0.09620692  0.68553442  0.58105180     0.12200
C1419       C  0.40324254  0.89219031  0.66700708     0.18500
C1420       C  0.39012903  0.88240872  0.68198890    -0.10600
C1421       C  0.38088532  0.87259291  0.65459708    -0.11400
C1422       C  0.38474235  0.87255322  0.61215586     0.20100
C1423       C  0.39744315  0.88281879  0.59696825    -0.13500
C1424       C  0.40669419  0.89261764  0.62435526    -0.11800
C1425       C  0.37716317  0.86059363  0.58499340     0.01100
C1426       C  0.37304736  0.84966538  0.56159902    -0.31800
C1427       C  0.41455652  0.89976911  0.69580386     0.02400
C1428       C  0.42514856  0.90351247  0.72045922    -0.33400
H1429       H  0.38755001  0.88178257  0.71504737     0.13500
H1430       H  0.37124795  0.86452835  0.66669751     0.13300
H1431       H  0.40066957  0.88269227  0.56422991     0.13200
H1432       H  0.41698317  0.89991293  0.61256334     0.12200
C1433       C  0.46303428  0.86255087  0.35113103     0.18500
C1434       C  0.46389566  0.84583062  0.36343181    -0.10600
C1435       C  0.44956032  0.83751572  0.37687789    -0.11400
C1436       C  0.43426136  0.84585250  0.37805550     0.20100
C1437       C  0.43336724  0.86249543  0.36515501    -0.13500
C1438       C  0.44769236  0.87080389  0.35171274    -0.11800
C1439       C  0.41969817  0.83763216  0.39448063     0.01100
C1440       C  0.40780528  0.83114082  0.41076889    -0.31800
C1441       C  0.47788808  0.87141668  0.33904588     0.02400
C1442       C  0.49004796  0.87936951  0.32942794    -0.33400
H1443       H  0.47567041  0.83929915  0.36317578     0.13500
H1444       H  0.45045189  0.82467821  0.38694805     0.13300
H1445       H  0.42165103  0.86912267  0.36608896     0.13200
H1446       H  0.44684704  0.88372838  0.34232678     0.12200
C1447       C  0.27333556  0.81752425  0.51308127     0.18500
C1448       C  0.26154019  0.81535809  0.48149144    -0.10600
C1449       C  0.24454730  0.81535106  0.49088305    -0.11400
C1450       C  0.23915243  0.81751526  0.53197087     0.20100
C1451       C  0.25093024  0.81993946  0.56356098    -0.13500
C1452       C  0.26795914  0.81994543  0.55414982    -0.11800
C1453       C  0.22161997  0.81641824  0.54171234     0.01100
C1454       C  0.20699848  0.81445022  0.54911264    -0.31800
C1455       C  0.29087005  0.81642985  0.50339742     0.02400
C1456       C  0.30532043  0.81447224  0.49414095    -0.33400
H1457       H  0.26548784  0.81339355  0.44966760     0.13500
H1458       H  0.23562122  0.81338032  0.46617352     0.13300
H1459       H  0.24697067  0.82154847  0.59549746     0.13200
H1460       H  0.27691632  0.82155927  0.57894777     0.12200
C1461       C  0.08376215  0.84030502  0.14015909     0.18500
C1462       C  0.09769766  0.83524043  0.16302948    -0.10600
C1463       C  0.10701084  0.82145609  0.15020895    -0.11400
C1464       C  0.10245247  0.81262732  0.11442175     0.20100
C1465       C  0.08851823  0.81768980  0.09152758    -0.13500
C1466       C  0.07919605  0.83148525  0.10436042    -0.11800
C1467       C  0.11206203  0.79841747  0.10118395     0.01100
C1468       C  0.12004754  0.78654029  0.08973384    -0.31800
C1469       C  0.07413926  0.85441691  0.15393505     0.02400
C1470       C  0.06667635  0.86613508  0.16822336    -0.33400
H1471       H  0.10134174  0.84193176  0.19081816     0.13500
H1472       H  0.11774768  0.81767942  0.16820150     0.13300
H1473       H  0.08485951  0.81096786  0.06380083     0.13200
H1474       H  0.06843430  0.83524667  0.08644932     0.12200
C1475       C  0.10672893  0.64791010  0.86671544     0.18500
C1476       C  0.12034960  0.65719148  0.85250663    -0.10600
C1477       C  0.12950298  0.66698049  0.88027819    -0.11400
C1478       C  0.12507236  0.66752368  0.92239314     0.20100
C1479       C  0.11181908  0.65778027  0.93681180    -0.13500
C1480       C  0.10267059  0.64800844  0.90906594    -0.11800
C1481       C  0.13289674  0.67926361  0.95002971     0.01100
C1482       C  0.13746647  0.68993154  0.97383025    -0.31800
C1483       C  0.09570613  0.64008750  0.83736275     0.02400
C1484       C  0.08534396  0.63579987  0.81249762    -0.33400
H1485       H  0.12347320  0.65739243  0.81971434     0.13500
H1486       H  0.13960584  0.67458168  0.86867471     0.13300
H1487       H  0.10815757  0.65822860  0.96923896     0.13200
H1488       H  0.09203974  0.64107615  0.92033734     0.12200
C1489       C  0.04760207  0.67692713  0.17628650     0.18500
C1490       C  0.06104980  0.67830843  0.20375611    -0.10600
C1491       C  0.07539319  0.68694888  0.19186637    -0.11400
C1492       C  0.07637528  0.69427997  0.15242382     0.20100
C1493       C  0.06282798  0.69311674  0.12516676    -0.13500
C1494       C  0.04848477  0.68446883  0.13705224    -0.11800
C1495       C  0.09145757  0.70239067  0.13906650     0.01100
C1496       C  0.10379388  0.70871817  0.12465438    -0.31800
C1497       C  0.03316177  0.66737199  0.18806297     0.02400
C1498       C  0.02149668  0.65894647  0.19884224    -0.33400
H1499       H  0.06052792  0.67252185  0.23415092     0.13500
H1500       H  0.08578360  0.68771206  0.21317586     0.13300
H1501       H  0.06344784  0.69869031  0.09453200     0.13200
H1502       H  0.03819217  0.68348606  0.11549479     0.12200
C1503       C  0.16084253  0.77487120  0.85784878     0.18500
C1504       C  0.15183550  0.76709311  0.82612727    -0.10600
C1505       C  0.15350521  0.77253714  0.78516215    -0.11400
C1506       C  0.16418761  0.78577115  0.77579008     0.20100
C1507       C  0.17330459  0.79349173  0.80743998    -0.13500
C1508       C  0.17163139  0.78803464  0.84849956    -0.11800
C1509       C  0.16544214  0.79147454  0.73368665     0.01100
C1510       C  0.16528725  0.79533481  0.69758707    -0.31800
C1511       C  0.15867500  0.76949577  0.89998915     0.02400
C1512       C  0.15615026  0.76468314  0.93480722    -0.33400
H1513       H  0.14344327  0.75691723  0.83311681     0.13500
H1514       H  0.14638854  0.76651249  0.76083692     0.13300
H1515       H  0.18158072  0.80375625  0.80042478     0.13200
H1516       H  0.17862609  0.79412987  0.87292230     0.12200
C1517       C  0.16269255  0.76280497  0.35807737     0.18500
C1518       C  0.15924796  0.74622219  0.34778333    -0.10600
C1519       C  0.16150959  0.74065453  0.30700592    -0.11400
C1520       C  0.16724423  0.75166227  0.27643005     0.20100
C1521       C  0.17093039  0.76817999  0.28686583    -0.13500
C1522       C  0.16866688  0.77374732  0.32763263    -0.11800
C1523       C  0.16818629  0.74638673  0.23384285     0.01100
C1524       C  0.16767260  0.74282478  0.19752379    -0.31800
C1525       C  0.15958792  0.76873469  0.39948884     0.02400
C1526       C  0.15660395  0.77387613  0.43384790    -0.33400
H1527       H  0.15456473  0.73767434  0.37112321     0.13500
H1528       H  0.15849016  0.72790836  0.29915701     0.13300
H1529       H  0.17523848  0.77683465  0.26331225     0.13200
H1530       H  0.17131062  0.78659913  0.33525411     0.12200
C1531       C  0.40986311  0.81209082  0.93031559     0.18500
C1532       C  0.42666292  0.81433059  0.94037837    -0.10600
C1533       C  0.43519323  0.82845418  0.92631973    -0.11400
C1534       C  0.42694941  0.84040648  0.90219572     0.20100
C1535       C  0.41012986  0.83820711  0.89242599    -0.13500
C1536       C  0.40161539  0.82410693  0.90645305    -0.11800
C1537       C  0.43575388  0.85466386  0.88619336     0.01100
C1538       C  0.44250339  0.86646651  0.87024256    -0.31800
C1539       C  0.40108688  0.79742016  0.94392346     0.02400
C1540       C  0.39336992  0.78526791  0.95464501    -0.33400
H1541       H  0.43317611  0.80512522  0.95878972     0.13500
H1542       H  0.44821253  0.82998078  0.93394353     0.13300
H1543       H  0.40363927  0.84732069  0.87366859     0.13200
H1544       H  0.38863915  0.82251786  0.89844764     0.12200
C1545       C  0.35178494  0.76228062  0.67839413     0.18500
C1546       C  0.36084639  0.74845566  0.69213951    -0.10600
C1547       C  0.35894136  0.74271960  0.73288607    -0.11400
C1548       C  0.34795734  0.75078259  0.76000133     0.20100
C1549       C  0.33868703  0.76443508  0.74604883    -0.13500
C1550       C  0.34059125  0.77017165  0.70529242    -0.11800
C1551       C  0.34705218  0.74575234  0.80280226     0.01100
C1552       C  0.34734839  0.74232454  0.83923360    -0.31800
C1553       C  0.35436707  0.76867912  0.63717596     0.02400
C1554       C  0.35687537  0.77418264  0.60291662    -0.33400
H1555       H  0.36956601  0.74228786  0.67158281     0.13500
H1556       H  0.36625139  0.73222243  0.74347801     0.13300
H1557       H  0.33024064  0.77082893  0.76688894     0.13200
H1558       H  0.33355431  0.78089480  0.69497132     0.12200
C1559       C  0.34456704  0.78656706  0.26045138     0.18500
C1560       C  0.33870566  0.77077991  0.24926849    -0.10600
C1561       C  0.34061591  0.76508961  0.20850866    -0.11400
C1562       C  0.34840796  0.77517733  0.17882147     0.20100
C1563       C  0.35396845  0.79110414  0.18978095    -0.13500
C1564       C  0.35206176  0.79679491  0.23056427    -0.11800
C1565       C  0.35137908  0.76890054  0.13769379     0.01100
C1566       C  0.35447375  0.76351067  0.10365061    -0.31800
C1567       C  0.34399276  0.79171229  0.30316661     0.02400
C1568       C  0.34465962  0.79515234  0.33953847    -0.33400
H1569       H  0.33300270  0.76272802  0.27228083     0.13500
H1570       H  0.33633307  0.75273737  0.20036136     0.13300
H1571       H  0.36006931  0.79897545  0.16702781     0.13200
H1572       H  0.35674647  0.80897020  0.23899523     0.12200
C1573       C  0.23900251  0.72145261  0.02523342     0.18500
C1574       C  0.24457552  0.71548792  0.98667515    -0.10600
C1575       C  0.26160767  0.71532998  0.97733787    -0.11400
C1576       C  0.27320778  0.72113147  0.00648700     0.20100
C1577       C  0.26762696  0.72698189  0.04511608    -0.13500
C1578       C  0.25062134  0.72713936  0.05443905    -0.11800
C1579       C  0.29073440  0.72173504  0.99637855     0.01100
C1580       C  0.30535028  0.72333414  0.98836574    -0.31800
C1581       C  0.22140908  0.72233702  0.03446749     0.02400
C1582       C  0.20686651  0.72411507  0.04307014    -0.33400
H1583       H  0.23575792  0.71113554  0.96368626     0.13500
H1584       H  0.26570557  0.71086490  0.94726256     0.13300
H1585       H  0.27640993  0.73160046  0.06786972     0.13200
H1586       H  0.24652173  0.73187019  0.08426302     0.12200
C1587       C  0.57706532  0.69127647  0.37895440     0.18500
C1588       C  0.57811330  0.67637149  0.35650512    -0.10600
C1589       C  0.56362418  0.66804609  0.34445798    -0.11400
C1590       C  0.54801410  0.67456341  0.35485254     0.20100
C1591       C  0.54696261  0.68965057  0.37653377    -0.13500
C1592       C  0.56145240  0.69797992  0.38856596    -0.11800
C1593       C  0.53315493  0.66550001  0.34428265     0.01100
C1594       C  0.52101981  0.65744805  0.33530441    -0.31800
C1595       C  0.59190310  0.69912327  0.39454752     0.02400
C1596       C  0.60387581  0.70538007  0.41081547    -0.33400
H1597       H  0.59010853  0.67102234  0.34905963     0.13500
H1598       H  0.56459078  0.65639495  0.32768131     0.13300
H1599       H  0.53496763  0.69482049  0.38473420     0.13200
H1600       H  0.56048666  0.70945667  0.40608391     0.12200
C1601       C  0.41016917  0.72565203  0.43201942     0.18500
C1602       C  0.42758867  0.72576943  0.43259241    -0.10600
C1603       C  0.43648590  0.71160397  0.42038906    -0.11400
C1604       C  0.42799762  0.69724825  0.40764142     0.20100
C1605       C  0.41059133  0.69702650  0.40799901    -0.13500
C1606       C  0.40170833  0.71117219  0.42016551    -0.11800
C1607       C  0.43698648  0.68309973  0.39170043     0.01100
C1608       C  0.44368069  0.67135316  0.37536749    -0.31800
C1609       C  0.40094939  0.74044149  0.44266836     0.02400
C1610       C  0.39303473  0.75269885  0.45157839    -0.33400
H1611       H  0.43427453  0.73687463  0.44180677     0.13500
H1612       H  0.44993898  0.71195263  0.42012588     0.13300
H1613       H  0.40388689  0.68602788  0.39808404     0.13200
H1614       H  0.38825291  0.71090430  0.41968765     0.12200
C1615       C  0.40174739  0.64755757  0.17669350     0.18500
C1616       C  0.39355920  0.66192813  0.19048062    -0.10600
C1617       C  0.38422960  0.67148575  0.16267786    -0.11400
C1618       C  0.38301393  0.66671477  0.12090981     0.20100
C1619       C  0.39060392  0.65195464  0.10750208    -0.13500
C1620       C  0.39996118  0.64239129  0.13533678    -0.11800
C1621       C  0.37593623  0.67802114  0.09103011     0.01100
C1622       C  0.37225959  0.68850366  0.06581468    -0.31800
C1623       C  0.41349842  0.63946388  0.20370996     0.02400
C1624       C  0.42441642  0.63511851  0.22696359    -0.33400
H1625       H  0.39500037  0.66615342  0.22229101     0.13500
H1626       H  0.37860183  0.68296964  0.17330816     0.13300
H1627       H  0.38991725  0.64824410  0.07514538     0.13200
H1628       H  0.40637425  0.63141066  0.12420537     0.12200
C1629       C  0.42624286  0.34015760  0.13716969     0.18500
C1630       C  0.42229596  0.33779197  0.09514379    -0.10600
C1631       C  0.41343109  0.32363667  0.08264243    -0.11400
C1632       C  0.40843920  0.31175517  0.11207133     0.20100
C1633       C  0.41252044  0.31405305  0.15403314    -0.13500
C1634       C  0.42138068  0.32819528  0.16652369    -0.11800
C1635       C  0.39898764  0.29734371  0.09929426     0.01100
C1636       C  0.39102934  0.28537702  0.08820467    -0.31800
C1637       C  0.43492226  0.35495999  0.15058203     0.02400
C1638       C  0.44174535  0.36711297  0.16472110    -0.33400
H1639       H  0.42595567  0.34693519  0.07211991     0.13500
H1640       H  0.41037260  0.32201343  0.05009356     0.13300
H1641       H  0.40875890  0.30497522  0.17712149     0.13200
H1642       H  0.42433019  0.32986732  0.19912249     0.12200
C1643       C  0.38360994  0.37272168  0.42290533     0.18500
C1644       C  0.37920166  0.37350647  0.38082510    -0.10600
C1645       C  0.38849571  0.38328967  0.35332033    -0.11400
C1646       C  0.40223182  0.39231942  0.36777761     0.20100
C1647       C  0.40613926  0.39215867  0.41020572    -0.13500
C1648       C  0.39684692  0.38238972  0.43769390    -0.11800
C1649       C  0.41362546  0.39969383  0.33856614     0.01100
C1650       C  0.42424015  0.40347995  0.31383060    -0.31800
C1651       C  0.37603349  0.36055063  0.44979674     0.02400
C1652       C  0.37188097  0.34941411  0.47272281    -0.33400
H1653       H  0.36910612  0.36597595  0.36896081     0.13500
H1654       H  0.38547154  0.38315894  0.32048178     0.13300
H1655       H  0.41683813  0.39891580  0.42166998     0.13200
H1656       H  0.40048084  0.38176243  0.47011031     0.12200
C1657       C  0.45739391  0.50210030  0.26184216     0.18500
C1658       C  0.45620565  0.50723084  0.30340958    -0.10600
C1659       C  0.45644810  0.52421256  0.31332607    -0.11400
C1660       C  0.45789031  0.53616361  0.28174380     0.20100
C1661       C  0.45891996  0.53102690  0.24018795    -0.13500
C1662       C  0.45867485  0.51406434  0.23028196    -0.11800
C1663       C  0.45902939  0.55362145  0.29198730     0.01100
C1664       C  0.46086514  0.56816269  0.30039482    -0.31800
C1665       C  0.45806135  0.48461861  0.25154237     0.02400
C1666       C  0.45965765  0.47014890  0.24208900    -0.33400
H1667       H  0.45531790  0.49811772  0.32814213     0.13500
H1668       H  0.45573907  0.52800800  0.34558989     0.13300
H1669       H  0.46013758  0.54012087  0.21549680     0.13200
H1670       H  0.45971093  0.51027311  0.19806894     0.12200
C1671       C  0.59930004  0.72653633  0.93358008     0.18500
C1672       C  0.60853630  0.71203203  0.92639133    -0.10600
C1673       C  0.60057962  0.69742240  0.91358013    -0.11400
C1674       C  0.58332124  0.69720301  0.90793883     0.20100
C1675       C  0.57404465  0.71164971  0.91562585    -0.13500
C1676       C  0.58201033  0.72627602  0.92845080    -0.11800
C1677       C  0.57529989  0.68242650  0.89225095     0.01100
C1678       C  0.56892835  0.67038118  0.87644532    -0.31800
C1679       C  0.60767861  0.74168942  0.94537423     0.02400
C1680       C  0.61541667  0.75399406  0.95485223    -0.33400
H1681       H  0.62190798  0.71207152  0.93022232     0.13500
H1682       H  0.60790408  0.68637567  0.90752620     0.13300
H1683       H  0.56070588  0.71166841  0.91115933     0.13200
H1684       H  0.57473073  0.73740161  0.93388631     0.12200
C1685       C  0.60825897  0.64677121  0.67107009     0.18500
C1686       C  0.60297707  0.64841822  0.62980941    -0.10600
C1687       C  0.61233200  0.65776748  0.60163255    -0.11400
C1688       C  0.62702815  0.66555959  0.61447792     0.20100
C1689       C  0.63261161  0.66352095  0.65543459    -0.13500
C1690       C  0.62323164  0.65413494  0.68369369    -0.11800
C1691       C  0.63519864  0.67697418  0.58664509     0.01100
C1692       C  0.63951817  0.68751207  0.56221685    -0.31800
C1693       C  0.59732625  0.63924034  0.70114436     0.02400
C1694       C  0.58689026  0.63503962  0.72594847    -0.33400
H1695       H  0.59132617  0.64300236  0.61983320     0.13500
H1696       H  0.60777586  0.65942913  0.57017881     0.13300
H1697       H  0.64383956  0.66964542  0.66585736     0.13200
H1698       H  0.62733102  0.65313908  0.71570279     0.12200
C1699       C  0.43652692  0.69284356  0.88732611     0.18500
C1700       C  0.45216361  0.69671360  0.90395614    -0.10600
C1701       C  0.46627455  0.68784775  0.89127862    -0.11400
C1702       C  0.46484696  0.67503475  0.86190367     0.20100
C1703       C  0.44925390  0.67134165  0.84482605    -0.13500
C1704       C  0.43514981  0.68020221  0.85749950    -0.11800
C1705       C  0.47925843  0.66545804  0.84983494     0.01100
C1706       C  0.49108809  0.65717382  0.83941852    -0.31800
C1707       C  0.42182707  0.70119714  0.90250162     0.02400
C1708       C  0.40963455  0.70755673  0.91766984    -0.33400
H1709       H  0.45340640  0.70640204  0.92717370     0.13500
H1710       H  0.47824013  0.69084275  0.90473361     0.13300
H1711       H  0.44796586  0.66147604  0.82209300     0.13200
H1712       H  0.42314667  0.67702445  0.84452412     0.12200
C1713       C  0.51257283  0.61221916  0.11194123     0.18500
C1714       C  0.52815082  0.61853099  0.10053490    -0.10600
C1715       C  0.53385483  0.61669210  0.05971606    -0.11400
C1716       C  0.52400671  0.60851344  0.03019258     0.20100
C1717       C  0.50857878  0.60191467  0.04182888    -0.13500
C1718       C  0.50287644  0.60375473  0.08262643    -0.11800
C1719       C  0.52917331  0.60786856  0.98741890     0.01100
C1720       C  0.53262367  0.60834251  0.95098264    -0.31800
C1721       C  0.50620795  0.61509070  0.15309787     0.02400
C1722       C  0.50063936  0.61804623  0.18707943    -0.33400
H1723       H  0.53572568  0.62514652  0.12295151     0.13500
H1724       H  0.54575613  0.62193964  0.05097364     0.13300
H1725       H  0.50081485  0.59566521  0.01916233     0.13200
H1726       H  0.49078947  0.59887455  0.09109345     0.12200
C1727       C  0.49912289  0.61411970  0.61209808     0.18500
C1728       C  0.50607254  0.60195795  0.58619982    -0.10600
C1729       C  0.50038854  0.60016326  0.54540046    -0.11400
C1730       C  0.48773834  0.61051108  0.53042132     0.20100
C1731       C  0.48065033  0.62253666  0.55648380    -0.13500
C1732       C  0.48633295  0.62433123  0.59727328    -0.11800
C1733       C  0.48275133  0.60951241  0.48764794     0.01100
C1734       C  0.47936734  0.60970144  0.45121324    -0.31800
C1735       C  0.50546138  0.61649268  0.65339396     0.02400
C1736       C  0.51095720  0.61896309  0.68763525    -0.33400
H1737       H  0.51601109  0.59405080  0.59734513     0.13500
H1738       H  0.50603990  0.59090923  0.52533756     0.13300
H1739       H  0.47095498  0.63068434  0.54506842     0.13200
H1740       H  0.48092371  0.63382508  0.61705138     0.12200
C1741       C  0.46312175  0.36260817  0.67752326     0.18500
C1742       C  0.46460572  0.34984805  0.64804932    -0.10600
C1743       C  0.45048550  0.34121908  0.63458721    -0.11400
C1744       C  0.43478783  0.34528050  0.65053489     0.20100
C1745       C  0.43332288  0.35792974  0.68030719    -0.13500
C1746       C  0.44744498  0.36655846  0.69377487    -0.11800
C1747       C  0.42016459  0.33697418  0.63496789     0.01100
C1748       C  0.40812614  0.33047140  0.61953921    -0.31800
C1749       C  0.47759336  0.37185423  0.69049725     0.02400
C1750       C  0.48953475  0.37987112  0.70129157    -0.33400
H1751       H  0.47664451  0.34668341  0.63518996     0.13500
H1752       H  0.45178004  0.33152320  0.61139928     0.13300
H1753       H  0.42125351  0.36125026  0.69273046     0.13200
H1754       H  0.44612168  0.37641032  0.71653289     0.12200
C1755       C  0.52417856  0.42657647  0.50848475     0.18500
C1756       C  0.51284993  0.43829664  0.49314724    -0.10600
C1757       C  0.50699136  0.43701298  0.45235812    -0.11400
C1758       C  0.51244512  0.42398776  0.42682657     0.20100
C1759       C  0.52401897  0.41246534  0.44191689    -0.13500
C1760       C  0.52987078  0.41374635  0.48267891    -0.11800
C1761       C  0.50570229  0.42198767  0.38577949     0.01100
C1762       C  0.49997788  0.41956926  0.35173226    -0.31800
C1763       C  0.52912613  0.42705910  0.55138029     0.02400
C1764       C  0.53236609  0.42664646  0.58790917    -0.33400
H1765       H  0.50829596  0.44821553  0.51297549     0.13500
H1766       H  0.49801460  0.44595908  0.44100962     0.13300
H1767       H  0.52828153  0.40231535  0.42241582     0.13200
H1768       H  0.53854923  0.40456533  0.49431737     0.12200
C1769       C  0.48767309  0.42881661  0.00973708     0.18500
C1770       C  0.47660135  0.43121325  0.97667178    -0.10600
C1771       C  0.48207610  0.42918935  0.93567349    -0.11400
C1772       C  0.49861495  0.42475724  0.92771341     0.20100
C1773       C  0.50968736  0.42252179  0.96079087    -0.13500
C1774       C  0.50422781  0.42454519  0.00168200    -0.11800
C1775       C  0.50422999  0.42203151  0.88584008     0.01100
C1776       C  0.50948249  0.41915440  0.85151548    -0.31800
C1777       C  0.48204741  0.42994708  0.05205037     0.02400
C1778       C  0.47836690  0.42967914  0.08833831    -0.33400
H1779       H  0.46375200  0.43442500  0.98259314     0.13500
H1780       H  0.47339629  0.43089473  0.91026547     0.13300
H1781       H  0.52247598  0.41904028  0.95498000     0.13200
H1782       H  0.51286781  0.42256666  0.02706726     0.12200
C1783       C  0.55223847  0.53560348  0.77548713     0.18500
C1784       C  0.56518073  0.52515726  0.78865898    -0.10600
C1785       C  0.56507773  0.50817796  0.77829239    -0.11400
C1786       C  0.55203044  0.50148757  0.75467422     0.20100
C1787       C  0.53920323  0.51198478  0.74114624    -0.13500
C1788       C  0.53930617  0.52893197  0.75149228    -0.11800
C1789       C  0.55143471  0.48383819  0.74530188     0.01100
C1790       C  0.54988843  0.46914939  0.73758472    -0.31800
C1791       C  0.55187247  0.55301845  0.78734227     0.02400
C1792       C  0.55047782  0.56752219  0.79714157    -0.33400
H1793       H  0.57525291  0.53009209  0.80727882     0.13500
H1794       H  0.57506930  0.50024419  0.78906791     0.13300
H1795       H  0.52901177  0.50702931  0.72295862     0.13200
H1796       H  0.52919522  0.53680551  0.74112333     0.12200
C1797       C  0.59853242  0.22699866  0.11044638     0.18500
C1798       C  0.58117180  0.22694180  0.11385223    -0.10600
C1799       C  0.57285456  0.21245581  0.12624104    -0.11400
C1800       C  0.58186230  0.19796134  0.13518526     0.20100
C1801       C  0.59920144  0.19799713  0.13144482    -0.13500
C1802       C  0.60750777  0.21246425  0.11907890    -0.11800
C1803       C  0.57346480  0.18329153  0.15009467     0.01100
C1804       C  0.56690060  0.17123901  0.16529358    -0.31800
C1805       C  0.60721592  0.24191723  0.09831961     0.02400
C1806       C  0.61505868  0.25402383  0.08790828    -0.33400
H1807       H  0.57409700  0.23810149  0.10723814     0.13500
H1808       H  0.55944974  0.21260468  0.12926440     0.13300
H1809       H  0.60630632  0.18689985  0.13851569     0.13200
H1810       H  0.62092938  0.21235320  0.11653860     0.12200
C1811       C  0.60795948  0.38984974  0.86657648     0.18500
C1812       C  0.61825058  0.37709747  0.85171206    -0.10600
C1813       C  0.62800996  0.36788950  0.87932994    -0.11400
C1814       C  0.62753406  0.37140608  0.92195400     0.20100
C1815       C  0.61770347  0.38454756  0.93664759    -0.13500
C1816       C  0.60793021  0.39375573  0.90901490    -0.11800
C1817       C  0.63524687  0.36018623  0.95093998     0.01100
C1818       C  0.63926303  0.34961292  0.97551736    -0.31800
C1819       C  0.59613099  0.39751273  0.83903549     0.02400
C1820       C  0.58532811  0.40173132  0.81532669    -0.33400
H1821       H  0.61821300  0.37382164  0.81900743     0.13500
H1822       H  0.63535126  0.35760133  0.86771208     0.13300
H1823       H  0.61704217  0.38720809  0.96965764     0.13200
H1824       H  0.59987514  0.40343399  0.92092070     0.12200
C1825       C  0.54794945  0.36554182  0.17952426     0.18500
C1826       C  0.54713778  0.34920852  0.16436465    -0.10600
C1827       C  0.56166740  0.34086561  0.15251940    -0.11400
C1828       C  0.57714904  0.34876421  0.15576653     0.20100
C1829       C  0.57798615  0.36507249  0.17118411    -0.13500
C1830       C  0.56344275  0.37342192  0.18305234    -0.11800
C1831       C  0.59198109  0.34037154  0.14142458     0.01100
C1832       C  0.60384928  0.33335294  0.12639647    -0.31800
C1833       C  0.53291675  0.37424120  0.19112102     0.02400
C1834       C  0.52052808  0.38178429  0.20104455    -0.33400
H1835       H  0.53526484  0.34296180  0.16142749     0.13500
H1836       H  0.56081035  0.32831165  0.14041802     0.13300
H1837       H  0.58984198  0.37138479  0.17363271     0.13200
H1838       H  0.56426619  0.38604779  0.19468831     0.12200
C1839       C  0.73754194  0.31419246  0.02547556     0.18500
C1840       C  0.74917695  0.31408994  0.05790698    -0.10600
C1841       C  0.76622873  0.31444390  0.04915602    -0.11400
C1842       C  0.77181423  0.31490872  0.00787552     0.20100
C1843       C  0.76018153  0.31519362  0.97541742    -0.13500
C1844       C  0.74311520  0.31483649  0.98417556    -0.11800
C1845       C  0.78941939  0.31432124  0.99883677     0.01100
C1846       C  0.80406497  0.31284473  0.99113229    -0.31800
C1847       C  0.71997595  0.31306729  0.03470579     0.02400
C1848       C  0.70544378  0.31143648  0.04351857    -0.33400
H1849       H  0.74507095  0.31352766  0.08995362     0.13500
H1850       H  0.77505218  0.31412739  0.07456262     0.13300
H1851       H  0.76430184  0.31546301  0.94335960     0.13200
H1852       H  0.73428853  0.31485662  0.95876472     0.12200
C1853       C  0.91080919  0.22642621  0.93126813     0.18500
C1854       C  0.91184193  0.21237954  0.95705789    -0.10600
C1855       C  0.92089337  0.19839086  0.94424139    -0.11400
C1856       C  0.92896151  0.19840185  0.90559849     0.20100
C1857       C  0.92799599  0.21248388  0.88000909    -0.13500
C1858       C  0.91895973  0.22643850  0.89278950    -0.11800
C1859       C  0.93764946  0.18382103  0.89108992     0.01100
C1860       C  0.94431913  0.17188022  0.87558911    -0.31800
C1861       C  0.90127219  0.24076496  0.94387993     0.02400
C1862       C  0.89321068  0.25278393  0.95394785    -0.33400
H1863       H  0.90557103  0.21220233  0.98686345     0.13500
H1864       H  0.92146434  0.18754622  0.96421131     0.13300
H1865       H  0.93409433  0.21261107  0.84997195     0.13200
H1866       H  0.91823633  0.23719321  0.87254426     0.12200
C1867       C  0.88236472  0.37083855  0.12160167     0.18500
C1868       C  0.89260038  0.38336007  0.10529452    -0.10600
C1869       C  0.90232381  0.39311812  0.13182481    -0.11400
C1870       C  0.90184925  0.39042072  0.17481816     0.20100
C1871       C  0.89108725  0.37836726  0.19127245    -0.13500
C1872       C  0.88137407  0.36858879  0.16472246    -0.11800
C1873       C  0.91382556  0.39840109  0.20144585     0.01100
C1874       C  0.92486581  0.40275197  0.22434306    -0.31800
C1875       C  0.87469947  0.35903775  0.09390639     0.02400
C1876       C  0.87072086  0.34837904  0.06946085    -0.33400
H1877       H  0.89363165  0.38507251  0.07197994     0.13500
H1878       H  0.91074242  0.40224837  0.11868683     0.13300
H1879       H  0.89076244  0.37602411  0.22443576     0.13200
H1880       H  0.87367081  0.35880739  0.17768672     0.12200
C1881       C  0.96378754  0.36248452  0.86456475     0.18500
C1882       C  0.96366840  0.35358315  0.90201869    -0.10600
C1883       C  0.94922325  0.34540489  0.91504818    -0.11400
C1884       C  0.93479144  0.34605982  0.89072346     0.20100
C1885       C  0.93493895  0.35484425  0.85307304    -0.13500
C1886       C  0.94939979  0.36302802  0.84002632    -0.11800
C1887       C  0.91979784  0.33808867  0.90519715     0.01100
C1888       C  0.90762479  0.33160462  0.92005358    -0.31800
C1889       C  0.97850653  0.37138989  0.85184384     0.02400
C1890       C  0.99053737  0.37928043  0.84107932    -0.33400
H1891       H  0.97468845  0.35309252  0.92132213     0.13500
H1892       H  0.94925980  0.33869832  0.94427884     0.13300
H1893       H  0.92385637  0.35549140  0.83403117     0.13200
H1894       H  0.94931948  0.36989808  0.81103936     0.12200
C1895       C  0.66459715  0.28481309  0.27676132     0.18500
C1896       C  0.65599514  0.29467139  0.30550072    -0.10600
C1897       C  0.65420879  0.28930618  0.34658391    -0.11400
C1898       C  0.66100601  0.27405525  0.35902732     0.20100
C1899       C  0.66976323  0.26427601  0.33040364    -0.13500
C1900       C  0.67155017  0.26964303  0.28930920    -0.11800
C1901       C  0.65842037  0.26815661  0.40067786     0.01100
C1902       C  0.65564837  0.26296470  0.43509540    -0.31800
C1903       C  0.66546410  0.28980831  0.23394812     0.02400
C1904       C  0.66509819  0.29343336  0.19765125    -0.33400
H1905       H  0.65045281  0.30636652  0.29598716     0.13500
H1906       H  0.64733987  0.29690901  0.36844724     0.13300
H1907       H  0.67499049  0.25241031  0.33970111     0.13200
H1908       H  0.67810599  0.26187054  0.26721652     0.12200
C1909       C  0.65634240  0.26199002  0.85842852     0.18500
C1910       C  0.67217506  0.25728418  0.84458619    -0.10600
C1911       C  0.67433320  0.25133275  0.80405117    -0.11400
C1912       C  0.66065398  0.25006102  0.77732798     0.20100
C1913       C  0.64483204  0.25468519  0.79129953    -0.13500
C1914       C  0.64267965  0.26062858  0.83173928    -0.11800
C1915       C  0.66275024  0.24459353  0.73510353     0.01100
C1916       C  0.66322727  0.24095487  0.69879952    -0.31800
C1917       C  0.65405443  0.26836140  0.89979947     0.02400
C1918       C  0.65176453  0.27380623  0.93422170    -0.33400
H1919       H  0.68282987  0.25830957  0.86500267     0.13500
H1920       H  0.68663757  0.24786110  0.79347337     0.13300
H1921       H  0.63418361  0.25382361  0.77080047     0.13200
H1922       H  0.63039001  0.26425164  0.84211553     0.12200
C1923       C  0.60839748  0.14774201  0.36118550     0.18500
C1924       C  0.61612530  0.16231218  0.34697293    -0.10600
C1925       C  0.62614816  0.17164242  0.37374018    -0.11400
C1926       C  0.62852913  0.16644118  0.41487299     0.20100
C1927       C  0.62133841  0.15152382  0.42861303    -0.13500
C1928       C  0.61128852  0.14219097  0.40182640    -0.11800
C1929       C  0.63627694  0.17749506  0.44429103     0.01100
C1930       C  0.64018147  0.18776722  0.46981899    -0.31800
C1931       C  0.59621026  0.13965470  0.33537349     0.02400
C1932       C  0.58512477  0.13518494  0.31276132    -0.33400
H1933       H  0.61384688  0.16682278  0.31573897     0.13500
H1934       H  0.63143134  0.18327530  0.36291321     0.13300
H1935       H  0.62289507  0.14750118  0.46052731     0.13200
H1936       H  0.60525184  0.13103822  0.41330320     0.12200
C1937       C  0.54805430  0.17392056  0.68395172     0.18500
C1938       C  0.56330592  0.16551237  0.68294076    -0.10600
C1939       C  0.57766588  0.17372932  0.66944339    -0.11400
C1940       C  0.57687136  0.19042102  0.65693565     0.20100
C1941       C  0.56173000  0.19899023  0.65924739    -0.13500
C1942       C  0.54736167  0.19076762  0.67274064    -0.11800
C1943       C  0.59127827  0.19838463  0.63912082     0.01100
C1944       C  0.60300688  0.20468374  0.62175595    -0.31800
C1945       C  0.53306877  0.16502953  0.69465556     0.02400
C1946       C  0.52076423  0.15708288  0.70296896    -0.33400
H1947       H  0.56401892  0.15250271  0.69162335     0.13500
H1948       H  0.58928106  0.16695568  0.66775943     0.13300
H1949       H  0.56094657  0.21188874  0.64962212     0.13200
H1950       H  0.53566509  0.19742394  0.67347943     0.12200
C1951       C  0.59980785  0.30975826  0.60978076     0.18500
C1952       C  0.60876549  0.32404581  0.62086164    -0.10600
C1953       C  0.60041600  0.33832082  0.63449329    -0.11400
C1954       C  0.58303312  0.33843666  0.63709743     0.20100
C1955       C  0.57405194  0.32418894  0.62572667    -0.13500
C1956       C  0.58241147  0.30989678  0.61207701    -0.11800
C1957       C  0.57452577  0.35296398  0.65280229     0.01100
C1958       C  0.56783678  0.36497827  0.66801200    -0.31800
C1959       C  0.60853633  0.29497856  0.59652870     0.02400
C1960       C  0.61636556  0.28290381  0.58566712    -0.33400
H1961       H  0.62221073  0.32411123  0.61924309     0.13500
H1962       H  0.60751888  0.34921104  0.64334231     0.13300
H1963       H  0.56061671  0.32408125  0.62775285     0.13200
H1964       H  0.57533285  0.29894368  0.60361488     0.12200
C1965       C  0.84343429  0.25054220  0.26073345     0.18500
C1966       C  0.83737995  0.26611903  0.24840372    -0.10600
C1967       C  0.83953178  0.27149919  0.20744317    -0.11400
C1968       C  0.84776202  0.26131648  0.17872257     0.20100
C1969       C  0.85348884  0.24558613  0.19080790    -0.13500
C1970       C  0.85133604  0.24020494  0.23177622    -0.11800
C1971       C  0.85099896  0.26733531  0.13747523     0.01100
C1972       C  0.85416688  0.27272725  0.10347162    -0.31800
C1973       C  0.84269841  0.24573846  0.30369090     0.02400
C1974       C  0.84333137  0.24248148  0.34017849    -0.33400
H1975       H  0.83135637  0.27425999  0.27068491     0.13500
H1976       H  0.83510868  0.28369995  0.19840777     0.13300
H1977       H  0.85992023  0.23764020  0.16880953     0.13200
H1978       H  0.85616633  0.22819519  0.24110275     0.12200
C1979       C  0.84906153  0.27881690  0.67731612     0.18500
C1980       C  0.83507963  0.27445651  0.70088441    -0.10600
C1981       C  0.83372846  0.27971874  0.74219016    -0.11400
C1982       C  0.84634084  0.28937114  0.76003862     0.20100
C1983       C  0.86011418  0.29409073  0.73613321    -0.13500
C1984       C  0.86146622  0.28882846  0.69484731    -0.11800
C1985       C  0.84572778  0.29352920  0.80349185     0.01100
C1986       C  0.84613640  0.29627093  0.84030156    -0.31800
C1987       C  0.85114896  0.27225277  0.63604845     0.02400
C1988       C  0.85348898  0.26626483  0.60220244    -0.33400
H1989       H  0.82544417  0.26668851  0.68765888     0.13500
H1990       H  0.82305097  0.27593837  0.76047947     0.13300
H1991       H  0.86996712  0.30148859  0.74968468     0.13200
H1992       H  0.87236104  0.29223859  0.67691309     0.12200
C1993       C  0.73797847  0.21983246  0.53140304     0.18500
C1994       C  0.74978895  0.22319144  0.56229107    -0.10600
C1995       C  0.76675367  0.22290087  0.55272838    -0.11400
C1996       C  0.77203222  0.21924627  0.51221465     0.20100
C1997       C  0.76023877  0.21552539  0.48152561    -0.13500
C1998       C  0.74326233  0.21581492  0.49109582    -0.11800
C1999       C  0.78942226  0.22039627  0.50162909     0.01100
C2000       C  0.80383798  0.22259104  0.49270226    -0.31800
C2001       C  0.72049061  0.22131728  0.54062423     0.02400
C2002       C  0.70595886  0.22337883  0.54849482    -0.33400
H2003       H  0.74587635  0.22636271  0.59352949     0.13500
H2004       H  0.77572948  0.22588156  0.57668439     0.13300
H2005       H  0.76414307  0.21276179  0.45004181     0.13200
H2006       H  0.73426343  0.21324116  0.46690265     0.12200
C2007       C  0.90300813  0.14911682  0.67421836     0.18500
C2008       C  0.90121423  0.14413591  0.63270780    -0.10600
C2009       C  0.89127603  0.15345166  0.60558730    -0.11400
C2010       C  0.88311290  0.16776920  0.61991225     0.20100
C2011       C  0.88434880  0.17229882  0.66182039    -0.13500
C2012       C  0.89425293  0.16299980  0.68888084    -0.11800
C2013       C  0.87543758  0.17902456  0.59086483     0.01100
C2014       C  0.87129410  0.18962204  0.56642601    -0.31800
C2015       C  0.91510630  0.14129115  0.70078494     0.02400
C2016       C  0.92596072  0.13703052  0.72433917    -0.33400
H2017       H  0.90802855  0.13350088  0.62091512     0.13500
H2018       H  0.89056828  0.14993537  0.57312077     0.13300
H2019       H  0.87826932  0.18345150  0.67315202     0.13200
H2020       H  0.89565415  0.16705828  0.72081164     0.12200
C2021       C  0.96213390  0.17413619  0.36381711     0.18500
C2022       C  0.94622046  0.16778745  0.35596299    -0.10600
C2023       C  0.93210707  0.17672916  0.36813641    -0.11400
C2024       C  0.93378028  0.19211434  0.38822537     0.20100
C2025       C  0.94969354  0.19854024  0.39585863    -0.13500
C2026       C  0.96382573  0.18958753  0.38366572    -0.11800
C2027       C  0.91921228  0.20087002  0.40270974     0.01100
C2028       C  0.90708967  0.20756064  0.41729163    -0.31800
C2029       C  0.97662976  0.16471904  0.35156774     0.02400
C2030       C  0.98843675  0.15651846  0.34056550    -0.33400
H2031       H  0.94472452  0.15587168  0.34066079     0.13500
H2032       H  0.91989666  0.17156345  0.36226573     0.13300
H2033       H  0.95117394  0.21036931  0.41158680     0.13200
H2034       H  0.97604464  0.19465439  0.38994191     0.12200
C2035       C  0.92586637  0.34013938  0.40070820     0.18500
C2036       C  0.91337447  0.34160453  0.43085969    -0.10600
C2037       C  0.90443844  0.32753303  0.44355465    -0.11400
C2038       C  0.90792365  0.31192263  0.42613234     0.20100
C2039       C  0.92044980  0.31045442  0.39608715    -0.13500
C2040       C  0.92938244  0.32451767  0.38340438    -0.11800
C2041       C  0.89862498  0.29745365  0.43896716     0.01100
C2042       C  0.89078085  0.28543316  0.45007102    -0.31800
C2043       C  0.93468384  0.35468196  0.38633542     0.02400
C2044       C  0.94175207  0.36656588  0.37162422    -0.33400
H2045       H  0.91047035  0.35361607  0.44430840     0.13500
H2046       H  0.89477581  0.32883474  0.46678621     0.13300
H2047       H  0.92325665  0.29847082  0.38235759     0.13200
H2048       H  0.93894411  0.32323238  0.35990204     0.12200
loop_ 
_geom_bond_atom_site_label_1 
_geom_bond_atom_site_label_2 
_geom_bond_distance 
_geom_bond_site_symmetry_2 
_ccdc_geom_bond_type 
Fe1          O17   2.070       .  S
Fe1           O7   2.056       .  S
Fe1          O14   2.060       .  S
Fe1           O6   2.066       .  S
Fe1          O12   1.984       .  S
Fe2           O5   2.067       .  S
Fe2           O9   2.065       .  S
Fe2          O13   2.068       .  S
Fe2          O18   2.062       .  S
Fe2          O12   1.979       .  S
Fe3          O21   2.072       .  S
Fe3           O8   2.071       .  S
Fe3          O15   2.068       .  S
Fe3           O4   2.071       .  S
Fe3          O12   1.986       .  S
O4           C11   1.268       .  A
O5           C19   1.267       .  A
O6           C11   1.267       .  A
O7           C10   1.266       .  A
O8           C20   1.268       .  A
O9           C22   1.267       .  A
C10          O15   1.268       .  A
C10        C1974   1.431       .  S
C11        C2000   1.439       .  S
O13          C16   1.268       .  A
O14          C16   1.266       .  A
C16        C1988   1.434       .  S
O17          C22   1.267       .  A
O18          C20   1.268       .  A
C19          O21   1.268       .  A
C19        C2028   1.440       .  S
C20        C2014   1.435       .  S
C22        C2042   1.438       .  S
Fe23         O39   2.068       .  S
Fe23         O29   2.059       .  S
Fe23         O36   2.062       .  S
Fe23         O28   2.065       .  S
Fe23         O34   1.984       .  S
Fe24         O27   2.066       .  S
Fe24         O31   2.067       .  S
Fe24         O35   2.065       .  S
Fe24         O40   2.060       .  S
Fe24         O34   1.981       .  S
Fe25         O43   2.070       .  S
Fe25         O30   2.072       .  S
Fe25         O37   2.070       .  S
Fe25         O26   2.069       .  S
Fe25         O34   1.987       .  S
O26          C33   1.266       .  A
O27          C41   1.267       .  A
O28          C33   1.266       .  A
O29          C32   1.267       .  A
O30          C42   1.268       .  A
O31          C44   1.266       .  A
C32          O37   1.269       .  A
C32        C1916   1.432       .  S
C33        C2002   1.439       .  S
O35          C38   1.268       .  A
O36          C38   1.267       .  A
C38        C1902   1.431       .  S
O39          C44   1.266       .  A
O40          C42   1.266       .  A
C41          O43   1.268       .  A
C41        C1944   1.438       .  S
C42        C1930   1.435       .  S
C44        C1960   1.440       .  S
Fe45         O61   2.063   1_556  S
Fe45         O51   2.064       .  S
Fe45         O58   2.066       .  S
Fe45         O50   2.063       .  S
Fe45         O56   1.984       .  S
Fe46         O49   2.062       .  S
Fe46         O53   2.063       .  S
Fe46         O57   2.067   1_554  S
Fe46         O62   2.062   1_554  S
Fe46         O56   1.981   1_554  S
Fe47         O65   2.069   1_556  S
Fe47         O52   2.077       .  S
Fe47         O59   2.078       .  S
Fe47         O48   2.067       .  S
Fe47         O56   1.986       .  S
O48          C55   1.268       .  A
O49          C63   1.267       .  A
O50          C55   1.268       .  A
O51          C54   1.265       .  A
O52          C64   1.269       .  A
O53          C66   1.268       .  A
C54          O59   1.268       .  A
C54        C1846   1.443       .  S
C55        C1986   1.433       .  S
O57          C60   1.266       .  A
O58          C60   1.265       .  A
C60        C1862   1.438       .  S
O61          C66   1.268       .  A
O62          C64   1.267       .  A
C63          O65   1.268       .  A
C63        C1876   1.435       .  S
C64        C1888   1.438       .  S
C66        C1972   1.431       .  S
Fe67         O83   2.061       .  S
Fe67         O73   2.065       .  S
Fe67         O80   2.065       .  S
Fe67         O72   2.059       .  S
Fe67         O78   1.985       .  S
Fe68         O71   2.059   1_554  S
Fe68         O75   2.067   1_554  S
Fe68         O79   2.065       .  S
Fe68         O84   2.065       .  S
Fe68         O78   1.981       .  S
Fe69         O87   2.068       .  S
Fe69         O74   2.079       .  S
Fe69         O81   2.078       .  S
Fe69         O70   2.067       .  S
Fe69         O78   1.987       .  S
O70          C77   1.268       .  A
O71          C85   1.267   1_556  A
O72          C77   1.267       .  A
O73          C76   1.265       .  A
O74          C86   1.269       .  A
O75          C88   1.268       .  A
C76          O81   1.268       .  A
C76        C1848   1.443       .  S
C77        C1904   1.431       .  S
O79          C82   1.266       .  A
O80          C82   1.266       .  A
C82        C1806   1.437       .  S
O83          C88   1.267   1_554  A
O84          C86   1.267       .  A
C85          O87   1.268       .  A
C85        C1818   1.433   1_554  S
C86        C1832   1.442       .  S
C88        C1918   1.433       .  S
Fe89        O105   2.064       .  S
Fe89         O95   2.067       .  S
Fe89        O102   2.067       .  S
Fe89         O94   2.060       .  S
Fe89        O100   1.985       .  S
Fe90         O93   2.061       .  S
Fe90         O97   2.065       .  S
Fe90        O101   2.066       .  S
Fe90        O106   2.064       .  S
Fe90        O100   1.982       .  S
Fe91        O109   2.068       .  S
Fe91         O96   2.077       .  S
Fe91        O103   2.082       .  S
Fe91         O92   2.067       .  S
Fe91        O100   1.986       .  S
O92          C99   1.268       .  A
O93         C107   1.267       .  A
O94          C99   1.267       .  A
O95          C98   1.266       .  A
O96         C108   1.270       .  A
O97         C110   1.268       .  A
C98         O103   1.269       .  A
C98        C1790   1.446       .  S
C99        C1764   1.432       .  S
O101        C104   1.266       .  A
O102        C104   1.266       .  A
C104       C1750   1.439       .  S
O105        C110   1.268       .  A
O106        C108   1.267       .  A
C107        O109   1.268       .  A
C107       C1820   1.434       .  S
C108       C1958   1.440       .  S
C110       C1776   1.433       .  S
Fe111       O127   2.062       .  S
Fe111       O117   2.069       .  S
Fe111       O124   2.072       .  S
Fe111       O116   2.059       .  S
Fe111       O122   1.985       .  S
Fe112       O115   2.059       .  S
Fe112       O119   2.064       .  S
Fe112       O123   2.065       .  S
Fe112       O128   2.061       .  S
Fe112       O122   1.981       .  S
Fe113       O131   2.072       .  S
Fe113       O118   2.076       .  S
Fe113       O125   2.081       .  S
Fe113       O114   2.070       .  S
Fe113       O122   1.987       .  S
O114        C121   1.268       .  A
O115        C129   1.266       .  A
O116        C121   1.267       .  A
O117        C120   1.267       .  A
O118        C130   1.270       .  A
O119        C132   1.268       .  A
C120        O125   1.269       .  A
C120       C1792   1.446       .  S
C121       C1720   1.433       .  S
O123        C126   1.265       .  A
O124        C126   1.267       .  A
C126       C1706   1.441       .  S
O127        C132   1.267       .  A
O128        C130   1.267       .  A
C129        O131   1.268       .  A
C129       C1694   1.435       .  S
C130       C1678   1.438       .  S
C132       C1736   1.431       .  S
Fe133       O149   2.067       .  S
Fe133       O139   2.059       .  S
Fe133       O146   2.060       .  S
Fe133       O138   2.061       .  S
Fe133       O144   1.985       .  S
Fe134       O137   2.065       .  S
Fe134       O141   2.073       .  S
Fe134       O145   2.066       .  S
Fe134       O150   2.064       .  S
Fe134       O144   1.980       .  S
Fe135       O153   2.077       .  S
Fe135       O140   2.068       .  S
Fe135       O147   2.069       .  S
Fe135       O136   2.076       .  S
Fe135       O144   1.988       .  S
O136        C143   1.268       .  A
O137        C151   1.267       .  A
O138        C143   1.265       .  A
O139        C142   1.267       .  A
O140        C152   1.267       .  A
O141        C154   1.268       .  A
C142        O147   1.268       .  A
C142       C1778   1.432       .  S
C143       C1666   1.440       .  S
O145        C148   1.268       .  A
O146        C148   1.266       .  A
C148       C1762   1.432       .  S
O149        C154   1.266       .  A
O150        C152   1.267       .  A
C151        O153   1.270       .  A
C151       C1638   1.440       .  S
C152       C1650   1.435       .  S
C154       C1834   1.442       .  S
Fe155       O171   2.066       .  S
Fe155       O161   2.058       .  S
Fe155       O168   2.062       .  S
Fe155       O160   2.064       .  S
Fe155       O166   1.984       .  S
Fe156       O159   2.066       .  S
Fe156       O163   2.063       .  S
Fe156       O167   2.068       .  S
Fe156       O172   2.060       .  S
Fe156       O166   1.981       .  S
Fe157       O175   2.070       .  S
Fe157       O162   2.069       .  S
Fe157       O169   2.065       .  S
Fe157       O158   2.072       .  S
Fe157       O166   1.987       .  S
O158        C165   1.268       .  A
O159        C173   1.268       .  A
O160        C165   1.266       .  A
O161        C164   1.266       .  A
O162        C174   1.267       .  A
O163        C176   1.265       .  A
C164        O169   1.267       .  A
C164       C1734   1.431       .  S
C165       C1664   1.439       .  S
O167        C170   1.269       .  A
O168        C170   1.267       .  A
C170       C1722   1.433       .  S
O171        C176   1.266       .  A
O172        C174   1.266       .  A
C173        O175   1.269       .  A
C173       C1608   1.437       .  S
C174       C1624   1.435       .  S
C176       C1594   1.437       .  S
Fe177       O193   2.064       .  S
Fe177       O183   2.061       .  S
Fe177       O190   2.063   1_556  S
Fe177       O182   2.062       .  S
Fe177       O188   1.984       .  S
Fe178       O181   2.063   1_554  S
Fe178       O185   2.066   1_554  S
Fe178       O189   2.063       .  S
Fe178       O194   2.062       .  S
Fe178       O188   1.982   1_554  S
Fe179       O197   2.081       .  S
Fe179       O184   2.069   1_556  S
Fe179       O191   2.066       .  S
Fe179       O180   2.082       .  S
Fe179       O188   1.986       .  S
O180        C187   1.269       .  A
O181        C195   1.267       .  A
O182        C187   1.265       .  A
O183        C186   1.267       .  A
O184        C196   1.268       .  A
O185        C198   1.265       .  A
C186        O191   1.268       .  A
C186       C1552   1.432       .  S
C187       C1580   1.444       .  S
O189        C192   1.268       .  A
O190        C192   1.267       .  A
C192       C1566   1.431       .  S
O193        C198   1.265       .  A
O194        C196   1.267       .  A
C195        O197   1.270       .  A
C195       C1708   1.441       .  S
C196       C1622   1.435       .  S
C198       C1540   1.437       .  S
Fe199       O215   2.067       .  S
Fe199       O205   2.058       .  S
Fe199       O212   2.061       .  S
Fe199       O204   2.063       .  S
Fe199       O210   1.985       .  S
Fe200       O203   2.057       .  S
Fe200       O207   2.066       .  S
Fe200       O211   2.059   1_554  S
Fe200       O216   2.063   1_554  S
Fe200       O210   1.980       .  S
Fe201       O219   2.081       .  S
Fe201       O206   2.070       .  S
Fe201       O213   2.067       .  S
Fe201       O202   2.082       .  S
Fe201       O210   1.985       .  S
O202        C209   1.269       .  A
O203        C217   1.266       .  A
O204        C209   1.266       .  A
O205        C208   1.267       .  A
O206        C218   1.268       .  A
O207        C220   1.265       .  A
C208        O213   1.268       .  A
C208       C1524   1.431       .  S
C209       C1582   1.444       .  S
O211        C214   1.267       .  A
O212        C214   1.267   1_554  A
C214       C1512   1.428       .  S
O215        C220   1.266       .  A
O216        C218   1.267   1_556  A
C217        O219   1.271       .  A
C217       C1496   1.438       .  S
C218       C1482   1.436   1_554  S
C220       C1468   1.439       .  S
Fe221       O237   2.062       .  S
Fe221       O227   2.066       .  S
Fe221       O234   2.069       .  S
Fe221       O226   2.062       .  S
Fe221       O232   1.984       .  S
Fe222       O225   2.059       .  S
Fe222       O229   2.065       .  S
Fe222       O233   2.064       .  S
Fe222       O238   2.065       .  S
Fe222       O232   1.981       .  S
Fe223       O241   2.061       .  S
Fe223       O228   2.077       .  S
Fe223       O235   2.078       .  S
Fe223       O224   2.063       .  S
Fe223       O232   1.987       .  S
O224        C231   1.267       .  A
O225        C239   1.266       .  A
O226        C231   1.268       .  A
O227        C230   1.266       .  A
O228        C240   1.269       .  A
O229        C242   1.268       .  A
C230        O235   1.268       .  A
C230       C1456   1.444       .  S
C231       C1568   1.431       .  S
O233        C236   1.265       .  A
O234        C236   1.267       .  A
C236       C1610   1.438       .  S
O237        C242   1.267       .  A
O238        C240   1.267       .  A
C239        O241   1.266       .  A
C239       C1426   1.430       .  S
C240       C1440   1.441       .  S
C242       C1554   1.432       .  S
Fe243       O259   2.064       .  S
Fe243       O249   2.063       .  S
Fe243       O256   2.068       .  S
Fe243       O248   2.059       .  S
Fe243       O254   1.983       .  S
Fe244       O247   2.063       .  S
Fe244       O251   2.062       .  S
Fe244       O255   2.068       .  S
Fe244       O260   2.061       .  S
Fe244       O254   1.980       .  S
Fe245       O263   2.067       .  S
Fe245       O250   2.082       .  S
Fe245       O257   2.081       .  S
Fe245       O246   2.062       .  S
Fe245       O254   1.985       .  S
O246        C253   1.268       .  A
O247        C261   1.268       .  A
O248        C253   1.268       .  A
O249        C252   1.265       .  A
O250        C262   1.270       .  A
O251        C264   1.267       .  A
C252        O257   1.269       .  A
C252       C1454   1.444       .  S
C253       C1510   1.428       .  S
O255        C258   1.266       .  A
O256        C258   1.266       .  A
C258       C1412   1.440       .  S
O259        C264   1.267       .  A
O260        C262   1.266       .  A
C261        O263   1.268       .  A
C261       C1386   1.433       .  S
C262       C1400   1.442       .  S
C264       C1526   1.432       .  S
Fe265       O281   2.065       .  S
Fe265       O271   2.061       .  S
Fe265       O278   2.065       .  S
Fe265       O270   2.064       .  S
Fe265       O276   1.984       .  S
Fe266       O269   2.059       .  S
Fe266       O273   2.068       .  S
Fe266       O277   2.060       .  S
Fe266       O282   2.065       .  S
Fe266       O276   1.981       .  S
Fe267       O285   2.074       .  S
Fe267       O272   2.068       .  S
Fe267       O279   2.066       .  S
Fe267       O268   2.077       .  S
Fe267       O276   1.986       .  S
O268        C275   1.268       .  A
O269        C283   1.266       .  A
O270        C275   1.266       .  A
O271        C274   1.267       .  A
O272        C284   1.268       .  A
O273        C286   1.266       .  A
C274        O279   1.268       .  A
C274       C1316   1.432       .  S
C275       C1342   1.442       .  S
O277        C280   1.267       .  A
O278        C280   1.268       .  A
C280       C1330   1.431       .  S
O281        C286   1.266       .  A
O282        C284   1.267       .  A
C283        O285   1.269       .  A
C283       C1356   1.436       .  S
C284       C1372   1.435       .  S
C286       C1890   1.438   1_455  S
Fe287       O303   2.069       .  S
Fe287       O293   2.060       .  S
Fe287       O300   2.061       .  S
Fe287       O292   2.064       .  S
Fe287       O298   1.984       .  S
Fe288       O291   2.064       .  S
Fe288       O295   2.067       .  S
Fe288       O299   2.066       .  S
Fe288       O304   2.060       .  S
Fe288       O298   1.981       .  S
Fe289       O307   2.077       .  S
Fe289       O294   2.071       .  S
Fe289       O301   2.070       .  S
Fe289       O290   2.077       .  S
Fe289       O298   1.988       .  S
O290        C297   1.268       .  A
O291        C305   1.267       .  A
O292        C297   1.266       .  A
O293        C296   1.267       .  A
O294        C306   1.268       .  A
O295        C308   1.266       .  A
C296        O301   1.269       .  A
C296       C1288   1.432       .  S
C297       C1344   1.442       .  S
O299        C302   1.268       .  A
O300        C302   1.267       .  A
C302       C1300   1.432       .  S
O303        C308   1.267       .  A
O304        C306   1.266       .  A
C305        O307   1.270       .  A
C305       C1414   1.440       .  S
C306       C1484   1.435       .  S
C308       C1272   1.440   1_455  S
Fe309       O325   2.061       .  S
Fe309       O315   2.065       .  S
Fe309       O322   2.066   1_655  S
Fe309       O314   2.059       .  S
Fe309       O320   1.984       .  S
Fe310       O313   2.062       .  S
Fe310       O317   2.067       .  S
Fe310       O321   2.069       .  S
Fe310       O326   2.063       .  S
Fe310       O320   1.980       .  S
Fe311       O329   2.069       .  S
Fe311       O316   2.075       .  S
Fe311       O323   2.080       .  S
Fe311       O312   2.067       .  S
Fe311       O320   1.986       .  S
O312        C319   1.268       .  A
O313        C327   1.267       .  A
O314        C319   1.267       .  A
O315        C318   1.265       .  A
O316        C328   1.269       .  A
O317        C330   1.269       .  A
C318        O323   1.269       .  A
C318       C1244   1.445       .  S
C319       C1328   1.431       .  S
O321        C324   1.265   1_655  A
O322        C324   1.265       .  A
C324       C1258   1.440       .  S
O325        C330   1.268       .  A
O326        C328   1.268       .  A
C327        O329   1.268       .  A
C327       C1874   1.435       .  S
C328       C2044   1.438       .  S
C330       C1314   1.431   1_655  S
Fe331       O347   2.060   1_655  S
Fe331       O337   2.066       .  S
Fe331       O344   2.068   1_655  S
Fe331       O336   2.057       .  S
Fe331       O342   1.986       .  S
Fe332       O335   2.062       .  S
Fe332       O339   2.068       .  S
Fe332       O343   2.066       .  S
Fe332       O348   2.066       .  S
Fe332       O342   1.982       .  S
Fe333       O351   2.070       .  S
Fe333       O338   2.079       .  S
Fe333       O345   2.082       .  S
Fe333       O334   2.069       .  S
Fe333       O342   1.985       .  S
O334        C341   1.268       .  A
O335        C349   1.266       .  A
O336        C341   1.266       .  A
O337        C340   1.266       .  A
O338        C350   1.270       .  A
O339        C352   1.269       .  A
C340        O345   1.270       .  A
C340       C1246   1.445       .  S
C341       C1302   1.432       .  S
O343        C346   1.266   1_655  A
O344        C346   1.266       .  A
C346       C1498   1.439       .  S
O347        C352   1.266   1_455  A
O348        C350   1.268       .  A
C349        O351   1.268       .  A
C349       C1230   1.436       .  S
C350       C1216   1.441       .  S
C352       C1286   1.433   1_655  S
Fe353       O369   2.065       .  S
Fe353       O359   2.057       .  S
Fe353       O366   2.060       .  S
Fe353       O358   2.065       .  S
Fe353       O364   1.984       .  S
Fe354       O357   2.058       .  S
Fe354       O361   2.065       .  S
Fe354       O365   2.059       .  S
Fe354       O370   2.063       .  S
Fe354       O364   1.980       .  S
Fe355       O373   2.076       .  S
Fe355       O360   2.067       .  S
Fe355       O367   2.064       .  S
Fe355       O356   2.080       .  S
Fe355       O364   1.985       .  S
O356        C363   1.269       .  A
O357        C371   1.266       .  A
O358        C363   1.266       .  A
O359        C362   1.266       .  A
O360        C372   1.267       .  A
O361        C374   1.265       .  A
C362        O367   1.267       .  A
C362       C1176   1.430       .  S
C363       C1204   1.443       .  S
O365        C368   1.267       .  A
O366        C368   1.267       .  A
C368       C1188   1.428       .  S
O369        C374   1.265       .  A
O370        C372   1.267       .  A
C371        O373   1.270       .  A
C371       C1804   1.436       .  S
C372       C1932   1.435       .  S
C374       C1162   1.437       .  S
Fe375       O391   2.066       .  S
Fe375       O381   2.059       .  S
Fe375       O388   2.060       .  S
Fe375       O380   2.063       .  S
Fe375       O386   1.983       .  S
Fe376       O379   2.061       .  S
Fe376       O383   2.070       .  S
Fe376       O387   2.060       .  S
Fe376       O392   2.062       .  S
Fe376       O386   1.981       .  S
Fe377       O395   2.083       .  S
Fe377       O382   2.066       .  S
Fe377       O389   2.064       .  S
Fe377       O378   2.083       .  S
Fe377       O386   1.985       .  S
O378        C385   1.270       .  A
O379        C393   1.267       .  A
O380        C385   1.266       .  A
O381        C384   1.266       .  A
O382        C394   1.266       .  A
O383        C396   1.266       .  A
C384        O389   1.267       .  A
C384       C1146   1.430       .  S
C385       C1202   1.443       .  S
O387        C390   1.267       .  A
O388        C390   1.267       .  A
C390       C1132   1.428       .  S
O391        C396   1.266       .  A
O392        C394   1.266       .  A
C393        O395   1.271       .  A
C393       C1104   1.440       .  S
C394       C1120   1.435       .  S
C396       C1442   1.440       .  S
Fe397       O413   2.064       .  S
Fe397       O403   2.062       .  S
Fe397       O410   2.067       .  S
Fe397       O402   2.061       .  S
Fe397       O408   1.982       .  S
Fe398       O401   2.061       .  S
Fe398       O405   2.058       .  S
Fe398       O409   2.066       .  S
Fe398       O414   2.058       .  S
Fe398       O408   1.978       .  S
Fe399       O417   2.064       .  S
Fe399       O404   2.078       .  S
Fe399       O411   2.076       .  S
Fe399       O400   2.059       .  S
Fe399       O408   1.986       .  S
O400        C407   1.267       .  A
O401        C415   1.266       .  A
O402        C407   1.267       .  A
O403        C406   1.266       .  A
O404        C416   1.270       .  A
O405        C418   1.268       .  A
C406        O411   1.268       .  A
C406       C1090   1.440       .  S
C407       C1190   1.428       .  S
O409        C412   1.265       .  A
O410        C412   1.266       .  A
C412       C1946   1.439       .  S
O413        C418   1.268       .  A
O414        C416   1.267       .  A
C415        O417   1.266       .  A
C415       C1076   1.433       .  S
C416       C1062   1.436       .  S
C418       C1174   1.429       .  S
Fe419       O435   2.054       .  S
Fe419       O425   2.067       .  S
Fe419       O432   2.068       .  S
Fe419       O424   2.052       .  S
Fe419       O430   1.980       .  S
Fe420       O423   2.053       .  S
Fe420       O427   2.069       .  S
Fe420       O431   2.060       .  S
Fe420       O436   2.066       .  S
Fe420       O430   1.979       .  S
Fe421       O439   2.067       .  S
Fe421       O426   2.070       .  S
Fe421       O433   2.070       .  S
Fe421       O422   2.067       .  S
Fe421       O430   1.983       .  S
O422        C429   1.268       .  A
O423        C437   1.265       .  A
O424        C429   1.265       .  A
O425        C428   1.267       .  A
O426        C438   1.268       .  A
O427        C440   1.268       .  A
C428        O433   1.267       .  A
C428       C1092   1.439       .  S
C429       C1134   1.428       .  S
O431        C434   1.265       .  A
O432        C434   1.266       .  A
C434       C1048   1.435       .  S
O435        C440   1.265       .  A
O436        C438   1.268       .  A
C437        O439   1.267       .  A
C437       C1428   1.430       .  S
C438       C1538   1.437       .  S
C440       C1148   1.430       .  S
Fe441       O457   2.068       .  S
Fe441       O447   2.057       .  S
Fe441       O454   2.060       .  S
Fe441       O446   2.066       .  S
Fe441       O452   1.983       .  S
Fe442       O445   2.064       .  S
Fe442       O449   2.069       .  S
Fe442       O453   2.065   1_554  S
Fe442       O458   2.065   1_554  S
Fe442       O452   1.981       .  S
Fe443       O461   2.071       .  S
Fe443       O448   2.069       .  S
Fe443       O455   2.069       .  S
Fe443       O444   2.075       .  S
Fe443       O452   1.985       .  S
O444        C451   1.269       .  A
O445        C459   1.268       .  A
O446        C451   1.267       .  A
O447        C450   1.266       .  A
O448        C460   1.267   1_554  A
O449        C462   1.266       .  A
C450        O455   1.267       .  A
C450        C978   1.433       .  S
C451       C1008   1.441       .  S
O453        C456   1.268       .  A
O454        C456   1.267   1_554  A
C456        C992   1.430       .  S
O457        C462   1.266       .  A
O458        C460   1.267       .  A
C459        O461   1.269       .  A
C459       C1034   1.436       .  S
C460       C1020   1.437       .  S
C462       C1218   1.441       .  S
Fe463       O479   2.061       .  S
Fe463       O469   2.061       .  S
Fe463       O476   2.064   1_556  S
Fe463       O468   2.059       .  S
Fe463       O474   1.982       .  S
Fe464       O467   2.056   1_554  S
Fe464       O471   2.070   1_554  S
Fe464       O475   2.059       .  S
Fe464       O480   2.063       .  S
Fe464       O474   1.979   1_554  S
Fe465       O483   2.077       .  S
Fe465       O470   2.067   1_556  S
Fe465       O477   2.067       .  S
Fe465       O466   2.079       .  S
Fe465       O474   1.985       .  S
O466        C473   1.269       .  A
O467        C481   1.266       .  A
O468        C473   1.265       .  A
O469        C472   1.267       .  A
O470        C482   1.267       .  A
O471        C484   1.266       .  A
C472        O477   1.268       .  A
C472        C966   1.433       .  S
C473       C1006   1.440       .  S
O475        C478   1.267       .  A
O476        C478   1.268       .  A
C478        C952   1.429       .  S
O479        C484   1.265       .  A
O480        C482   1.267       .  A
C481        O483   1.270       .  A
C481       C1050   1.435       .  S
C482       C1118   1.435       .  S
C484       C1680   1.438       .  S
Fe485       O501   2.067       .  S
Fe485       O491   2.065       .  S
Fe485       O498   2.070       .  S
Fe485       O490   2.061       .  S
Fe485       O496   1.985       .  S
Fe486       O489   2.066       .  S
Fe486       O493   2.067       .  S
Fe486       O497   2.073       .  S
Fe486       O502   2.066       .  S
Fe486       O496   1.980       .  S
Fe487       O505   2.067       .  S
Fe487       O492   2.075       .  S
Fe487       O499   2.077       .  S
Fe487       O488   2.062       .  S
Fe487       O496   1.987       .  S
O488        C495   1.267       .  A
O489        C503   1.267       .  A
O490        C495   1.267       .  A
O491        C494   1.266       .  A
O492        C504   1.269       .  A
O493        C506   1.269       .  A
C494        O499   1.268       .  A
C494        C922   1.442       .  S
C495        C994   1.430       .  S
O497        C500   1.266       .  A
O498        C500   1.266       .  A
C500        C936   1.444       .  S
O501        C506   1.269       .  A
O502        C504   1.268       .  A
C503        O505   1.267       .  A
C503       C1232   1.437       .  S
C504       C1274   1.439       .  S
C506        C980   1.434       .  S
Fe507       O523   2.068       .  S
Fe507       O513   2.064       .  S
Fe507       O520   2.068       .  S
Fe507       O512   2.062       .  S
Fe507       O518   1.982       .  S
Fe508       O511   2.061       .  S
Fe508       O515   2.061       .  S
Fe508       O519   2.067       .  S
Fe508       O524   2.059       .  S
Fe508       O518   1.979       .  S
Fe509       O527   2.068       .  S
Fe509       O514   2.077       .  S
Fe509       O521   2.077       .  S
Fe509       O510   2.063       .  S
Fe509       O518   1.987       .  S
O510        C517   1.268       .  A
O511        C525   1.266       .  A
O512        C517   1.268       .  A
O513        C516   1.266       .  A
O514        C526   1.270       .  A
O515        C528   1.268       .  A
C516        O521   1.268       .  A
C516        C924   1.442       .  S
C517        C950   1.430       .  S
O519        C522   1.265       .  A
O520        C522   1.266       .  A
C522       C1106   1.441       .  S
O523        C528   1.269       .  A
O524        C526   1.267       .  A
C525        O527   1.267       .  A
C525       C1692   1.435       .  S
C526       C1596   1.436       .  S
C528        C964   1.433       .  S
Fe529       O545   2.063       .  S
Fe529       O535   2.062       .  S
Fe529       O542   2.066       .  S
Fe529       O534   2.062       .  S
Fe529       O540   1.984       .  S
Fe530       O533   2.061       .  S
Fe530       O537   2.068       .  S
Fe530       O541   2.063       .  S
Fe530       O546   2.065       .  S
Fe530       O540   1.981       .  S
Fe531       O549   2.078       .  S
Fe531       O536   2.066       .  S
Fe531       O543   2.063       .  S
Fe531       O532   2.080       .  S
Fe531       O540   1.985       .  S
O532        C539   1.270       .  A
O533        C547   1.267       .  A
O534        C539   1.266       .  A
O535        C538   1.267       .  A
O536        C548   1.267       .  A
O537        C550   1.266       .  A
C538        O543   1.267       .  A
C538        C882   1.432       .  S
C539        C910   1.442       .  S
O541        C544   1.268       .  A
O542        C544   1.268       .  A
C544        C894   1.432       .  S
O545        C550   1.265       .  A
O546        C548   1.267       .  A
C547        O549   1.270       .  A
C547       C1748   1.438       .  S
C548       C1652   1.436       .  S
C550       C1064   1.437       .  S
Fe551       O567   2.067       .  S
Fe551       O557   2.062       .  S
Fe551       O564   2.065       .  S
Fe551       O556   2.065       .  S
Fe551       O562   1.984       .  S
Fe552       O555   2.061       .  S
Fe552       O559   2.068       .  S
Fe552       O563   2.061       .  S
Fe552       O568   2.065       .  S
Fe552       O562   1.980       .  S
Fe553       O571   2.080       .  S
Fe553       O558   2.066       .  S
Fe553       O565   2.063       .  S
Fe553       O554   2.080       .  S
Fe553       O562   1.985       .  S
O554        C561   1.270       .  A
O555        C569   1.267       .  A
O556        C561   1.267       .  A
O557        C560   1.266       .  A
O558        C570   1.267       .  A
O559        C572   1.266       .  A
C560        O565   1.266       .  A
C560        C866   1.432       .  S
C561        C908   1.442       .  S
O563        C566   1.267       .  A
O564        C566   1.267       .  A
C566        C852   1.432       .  S
O567        C572   1.267       .  A
O568        C570   1.267       .  A
C569        O571   1.270       .  A
C569       C1260   1.440       .  S
C570       C1370   1.435       .  S
C572        C838   1.439       .  S
Fe573       O589   2.063       .  S
Fe573       O579   2.065       .  S
Fe573       O586   2.071       .  S
Fe573       O578   2.059       .  S
Fe573       O584   1.984       .  S
Fe574       O577   2.062   1_554  S
Fe574       O581   2.064   1_554  S
Fe574       O585   2.066       .  S
Fe574       O590   2.061       .  S
Fe574       O584   1.981       .  S
Fe575       O593   2.068       .  S
Fe575       O580   2.073       .  S
Fe575       O587   2.076       .  S
Fe575       O576   2.066       .  S
Fe575       O584   1.987       .  S
O576        C583   1.268       .  A
O577        C591   1.267   1_556  A
O578        C583   1.267       .  A
O579        C582   1.266       .  A
O580        C592   1.269       .  A
O581        C594   1.268       .  A
C582        O587   1.268       .  A
C582        C824   1.442       .  S
C583        C896   1.431       .  S
O585        C588   1.266       .  A
O586        C588   1.267       .  A
C588       C1636   1.441       .  S
O589        C594   1.267   1_554  A
O590        C592   1.266       .  A
C591        O593   1.268       .  A
C591       C1078   1.435   1_554  S
C592       C1160   1.436       .  S
C594        C880   1.432       .  S
Fe595       O611   2.064   1_556  S
Fe595       O601   2.063       .  S
Fe595       O608   2.062       .  S
Fe595       O600   2.063       .  S
Fe595       O606   1.984       .  S
Fe596       O599   2.063       .  S
Fe596       O603   2.063       .  S
Fe596       O607   2.066   1_554  S
Fe596       O612   2.059   1_554  S
Fe596       O606   1.981   1_554  S
Fe597       O615   2.065   1_556  S
Fe597       O602   2.071       .  S
Fe597       O609   2.076       .  S
Fe597       O598   2.063       .  S
Fe597       O606   1.986       .  S
O598        C605   1.267       .  A
O599        C613   1.268       .  A
O600        C605   1.267       .  A
O601        C604   1.266       .  A
O602        C614   1.268       .  A
O603        C616   1.267       .  A
C604        O609   1.268       .  A
C604        C826   1.441       .  S
C605        C854   1.432       .  S
O607        C610   1.266       .  A
O608        C610   1.266       .  A
C610       C1358   1.436       .  S
O611        C616   1.267       .  A
O612        C614   1.266       .  A
C613        O615   1.267       .  A
C613        C798   1.433       .  S
C614        C810   1.435       .  S
C616        C868   1.433       .  S
Fe617       O633   2.065   1_655  S
Fe617       O623   2.061       .  S
Fe617       O630   2.064       .  S
Fe617       O622   2.063       .  S
Fe617       O628   1.984       .  S
Fe618       O621   2.064       .  S
Fe618       O625   2.063       .  S
Fe618       O629   2.065       .  S
Fe618       O634   2.062       .  S
Fe618       O628   1.982       .  S
Fe619       O637   2.071       .  S
Fe619       O624   2.070       .  S
Fe619       O631   2.069       .  S
Fe619       O620   2.074       .  S
Fe619       O628   1.985       .  S
O620        C627   1.268       .  A
O621        C635   1.267       .  A
O622        C627   1.266       .  A
O623        C626   1.267       .  A
O624        C636   1.268       .  A
O625        C638   1.265   1_655  A
C626        O631   1.268       .  A
C626        C754   1.434       .  S
C627        C782   1.440       .  S
O629        C632   1.268       .  A
O630        C632   1.267       .  A
C632        C768   1.433   1_655  S
O633        C638   1.266       .  A
O634        C636   1.267       .  A
C635        O637   1.268       .  A
C635       C1860   1.437       .  S
C636       C2016   1.436       .  S
C638        C812   1.435       .  S
Fe639       O655   2.072   1_655  S
Fe639       O645   2.057       .  S
Fe639       O652   2.060       .  S
Fe639       O644   2.069       .  S
Fe639       O650   1.985       .  S
Fe640       O643   2.067       .  S
Fe640       O647   2.069       .  S
Fe640       O651   2.068       .  S
Fe640       O656   2.063       .  S
Fe640       O650   1.980       .  S
Fe641       O659   2.079       .  S
Fe641       O646   2.071       .  S
Fe641       O653   2.067       .  S
Fe641       O642   2.075       .  S
Fe641       O650   1.986       .  S
O642        C649   1.268       .  A
O643        C657   1.267       .  A
O644        C649   1.267       .  A
O645        C648   1.267       .  A
O646        C658   1.268       .  A
O647        C660   1.266   1_655  A
C648        O653   1.268       .  A
C648        C740   1.430       .  S
C649        C784   1.442       .  S
O651        C654   1.268       .  A
O652        C654   1.267       .  A
C654        C728   1.433   1_655  S
O655        C660   1.267       .  A
O656        C658   1.267       .  A
C657        O659   1.270       .  A
C657        C938   1.443       .  S
C658       C1022   1.436       .  S
C660       C1398   1.442       .  S
Fe661       O677   2.069       .  S
Fe661       O667   2.066       .  S
Fe661       O674   2.070       .  S
Fe661       O666   2.062       .  S
Fe661       O672   1.983       .  S
Fe662       O665   2.064       .  S
Fe662       O669   2.066       .  S
Fe662       O673   2.069       .  S
Fe662       O678   2.063       .  S
Fe662       O672   1.981       .  S
Fe663       O681   2.064       .  S
Fe663       O668   2.079       .  S
Fe663       O675   2.082       .  S
Fe663       O664   2.063       .  S
Fe663       O672   1.985       .  S
O664        C671   1.267       .  A
O665        C679   1.267       .  A
O666        C671   1.267       .  A
O667        C670   1.267       .  A
O668        C680   1.270       .  A
O669        C682   1.269       .  A
C670        O675   1.270       .  A
C670        C714   1.445       .  S
C671        C770   1.432       .  S
O673        C676   1.266       .  A
O674        C676   1.266       .  A
C676       C2030   1.441   1_455  S
O677        C682   1.269       .  A
O678        C680   1.268       .  A
C679        O681   1.266       .  A
C679        C796   1.434       .  S
C680        C840   1.439       .  S
C682        C756   1.435       .  S
Fe683       O699   2.059       .  S
Fe683       O689   2.069       .  S
Fe683       O696   2.070       .  S
Fe683       O688   2.058       .  S
Fe683       O694   1.985       .  S
Fe684       O687   2.061       .  S
Fe684       O691   2.065       .  S
Fe684       O695   2.063       .  S
Fe684       O700   2.064       .  S
Fe684       O694   1.981       .  S
Fe685       O703   2.066       .  S
Fe685       O690   2.074       .  S
Fe685       O697   2.078       .  S
Fe685       O686   2.068       .  S
Fe685       O694   1.986       .  S
O686        C693   1.268       .  A
O687        C701   1.266       .  A
O688        C693   1.267       .  A
O689        C692   1.267       .  A
O690        C702   1.269       .  A
O691        C704   1.268       .  A
C692        O697   1.268       .  A
C692        C712   1.445       .  S
C693        C726   1.432       .  S
O695        C698   1.265       .  A
O696        C698   1.266       .  A
C698       C1036   1.438   1_455  S
O699        C704   1.267       .  A
O700        C702   1.268       .  A
C701        O703   1.267       .  A
C701       C1384   1.434       .  S
C702       C1470   1.438       .  S
C704        C742   1.430       .  S
C705        C713   1.450       .  S
C705        C706   1.402       .  A
C705        C710   1.404       .  A
C706        C707   1.401       .  A
C706        H715   1.084       .  S
C707        C708   1.402       .  A
C707        H716   1.084       .  S
C708        C711   1.450   1_545  S
C708        C709   1.404       .  A
C709        C710   1.405       .  A
C709        H717   1.084   1_545  S
C710        H718   1.084       .  S
C711        C712   1.212       .  T
C713        C714   1.212       .  T
C719        C727   1.437       .  S
C719        C720   1.401       .  A
C719        C724   1.401       .  A
C720        C721   1.397   1_556  A
C720        H729   1.083   1_455  S
C721        C722   1.401       .  A
C721        H730   1.085   1_455  S
C722        C725   1.437       .  S
C722        C723   1.401   1_554  A
C723        C724   1.399       .  A
C723        H731   1.083       .  S
C724        H732   1.084       .  S
C725        C726   1.204       .  T
C727        C728   1.205       .  T
C733        C741   1.435   1_655  S
C733        C734   1.401       .  A
C733        C738   1.400   1_655  A
C734        C735   1.398       .  A
C734        H743   1.084       .  S
C735        C736   1.401       .  A
C735        H744   1.083       .  S
C736        C739   1.435       .  S
C736        C737   1.400   1_655  A
C737        C738   1.396       .  A
C737        H745   1.085       .  S
C738        H746   1.083       .  S
C739        C740   1.203       .  T
C741        C742   1.203       .  T
C747        C755   1.440   1_655  S
C747        C748   1.401       .  A
C747        C752   1.401   1_655  A
C748        C749   1.399       .  A
C748        H757   1.085       .  S
C749        C750   1.401       .  A
C749        H758   1.083       .  S
C750        C753   1.439   1_554  S
C750        C751   1.401   1_655  A
C751        C752   1.399       .  A
C751        H759   1.085       .  S
C752        H760   1.083       .  S
C753        C754   1.206       .  T
C755        C756   1.206       .  T
C761        C769   1.437       .  S
C761        C762   1.400       .  A
C761        C766   1.401       .  A
C762        C763   1.396       .  A
C762        H771   1.084       .  S
C763        C764   1.400       .  A
C763        H772   1.084       .  S
C764        C767   1.437       .  S
C764        C765   1.402       .  A
C765        C766   1.399       .  A
C765        H773   1.083       .  S
C766        H774   1.084       .  S
C767        C768   1.205       .  T
C769        C770   1.204       .  T
C775        C783   1.446   1_545  S
C775        C776   1.403       .  A
C775        C780   1.402       .  A
C776        C777   1.401       .  A
C776        H785   1.084       .  S
C777        C778   1.402       .  A
C777        H786   1.084       .  S
C778        C781   1.445       .  S
C778        C779   1.403       .  A
C779        C780   1.401       .  A
C779        H787   1.084       .  S
C780        H788   1.084   1_545  S
C781        C782   1.209       .  T
C783        C784   1.210       .  T
C789        C797   1.438       .  S
C789        C790   1.402       .  A
C789        C794   1.400       .  A
C790        C791   1.398       .  A
C790        H799   1.084       .  S
C791        C792   1.400       .  A
C791        H800   1.083       .  S
C792        C795   1.439       .  S
C792        C793   1.402       .  A
C793        C794   1.399       .  A
C793        H801   1.084       .  S
C794        H802   1.083       .  S
C795        C796   1.206       .  T
C797        C798   1.205       .  T
C803        C811   1.440       .  S
C803        C804   1.401       .  A
C803        C808   1.401       .  A
C804        C805   1.399       .  A
C804        H813   1.084       .  S
C805        C806   1.402       .  A
C805        H814   1.084       .  S
C806        C809   1.440       .  S
C806        C807   1.401       .  A
C807        C808   1.399       .  A
C807        H815   1.084       .  S
C808        H816   1.084       .  S
C809        C810   1.206       .  T
C811        C812   1.206       .  T
C817        C825   1.446       .  S
C817        C818   1.402   1_554  A
C817        C822   1.403       .  A
C818        C819   1.401       .  A
C818        H827   1.083       .  S
C819        C820   1.402   1_556  A
C819        H828   1.083       .  S
C820        C823   1.446       .  S
C820        C821   1.403       .  A
C821        C822   1.402       .  A
C821        H829   1.083       .  S
C822        H830   1.083       .  S
C823        C824   1.210       .  T
C825        C826   1.209   1_554  T
C831        C839   1.444       .  S
C831        C832   1.401       .  A
C831        C836   1.403       .  A
C832        C833   1.399       .  A
C832        H841   1.084       .  S
C833        C834   1.402       .  A
C833        H842   1.084       .  S
C834        C837   1.443       .  S
C834        C835   1.402       .  A
C835        C836   1.401       .  A
C835        H843   1.084       .  S
C836        H844   1.084       .  S
C837        C838   1.208       .  T
C839        C840   1.208       .  T
C845        C853   1.437       .  S
C845        C846   1.402       .  A
C845        C850   1.400       .  A
C846        C847   1.399       .  A
C846        H855   1.083       .  S
C847        C848   1.401       .  A
C847        H856   1.084       .  S
C848        C851   1.437       .  S
C848        C849   1.400       .  A
C849        C850   1.397       .  A
C849        H857   1.083       .  S
C850        H858   1.084       .  S
C851        C852   1.204       .  T
C853        C854   1.204       .  T
C859        C867   1.437       .  S
C859        C860   1.401       .  A
C859        C864   1.401       .  A
C860        C861   1.398       .  A
C860        H869   1.084       .  S
C861        C862   1.401       .  A
C861        H870   1.084       .  S
C862        C865   1.437       .  S
C862        C863   1.401       .  A
C863        C864   1.398       .  A
C863        H871   1.084       .  S
C864        H872   1.084       .  S
C865        C866   1.204       .  T
C867        C868   1.205       .  T
C873        C881   1.437       .  S
C873        C874   1.401       .  A
C873        C878   1.401       .  A
C874        C875   1.397       .  A
C874        H883   1.084       .  S
C875        C876   1.400       .  A
C875        H884   1.084       .  S
C876        C879   1.437       .  S
C876        C877   1.401       .  A
C877        C878   1.398       .  A
C877        H885   1.084       .  S
C878        H886   1.084       .  S
C879        C880   1.204       .  T
C881        C882   1.204       .  T
C887        C895   1.436       .  S
C887        C888   1.401       .  A
C887        C892   1.401       .  A
C888        C889   1.397       .  A
C888        H897   1.083       .  S
C889        C890   1.400       .  A
C889        H898   1.085       .  S
C890        C893   1.437       .  S
C890        C891   1.401       .  A
C891        C892   1.399       .  A
C891        H899   1.083       .  S
C892        H900   1.085       .  S
C893        C894   1.204       .  T
C895        C896   1.204       .  T
C901        C909   1.447       .  S
C901        C902   1.402       .  A
C901        C906   1.403       .  A
C902        C903   1.401       .  A
C902        H911   1.083       .  S
C903        C904   1.402       .  A
C903        H912   1.083       .  S
C904        C907   1.447       .  S
C904        C905   1.403       .  A
C905        C906   1.403       .  A
C905        H913   1.083       .  S
C906        H914   1.083       .  S
C907        C908   1.210       .  T
C909        C910   1.210       .  T
C915        C923   1.447       .  S
C915        C916   1.403       .  A
C915        C920   1.402       .  A
C916        C917   1.402       .  A
C916        H925   1.083       .  S
C917        C918   1.403       .  A
C917        H926   1.083       .  S
C918        C921   1.447       .  S
C918        C919   1.402       .  A
C919        C920   1.401       .  A
C919        H927   1.083       .  S
C920        H928   1.083       .  S
C921        C922   1.210       .  T
C923        C924   1.210       .  T
C929        C937   1.448       .  S
C929        C930   1.402       .  A
C929        C934   1.403       .  A
C930        C931   1.402       .  A
C930        H939   1.083       .  S
C931        C932   1.403       .  A
C931        H940   1.083       .  S
C932        C935   1.449       .  S
C932        C933   1.403       .  A
C933        C934   1.403       .  A
C933        H941   1.083       .  S
C934        H942   1.083       .  S
C935        C936   1.211       .  T
C937        C938   1.211       .  T
C943        C951   1.434       .  S
C943        C944   1.401       .  A
C943        C948   1.400       .  A
C944        C945   1.397       .  A
C944        H953   1.085       .  S
C945        C946   1.401       .  A
C945        H954   1.082       .  S
C946        C949   1.435       .  S
C946        C947   1.400       .  A
C947        C948   1.397       .  A
C947        H955   1.085       .  S
C948        H956   1.083       .  S
C949        C950   1.203       .  T
C951        C952   1.203       .  T
C957        C965   1.438       .  S
C957        C958   1.401       .  A
C957        C962   1.401       .  A
C958        C959   1.398       .  A
C958        H967   1.084       .  S
C959        C960   1.401       .  A
C959        H968   1.084       .  S
C960        C963   1.437       .  S
C960        C961   1.401       .  A
C961        C962   1.398       .  A
C961        H969   1.084       .  S
C962        H970   1.084       .  S
C963        C964   1.205       .  T
C965        C966   1.205       .  T
C971        C979   1.438       .  S
C971        C972   1.400       .  A
C971        C976   1.402       .  A
C972        C973   1.397       .  A
C972        H981   1.084       .  S
C973        C974   1.401       .  A
C973        H982   1.084       .  S
C974        C977   1.438       .  S
C974        C975   1.401       .  A
C975        C976   1.400       .  A
C975        H983   1.084       .  S
C976        H984   1.083       .  S
C977        C978   1.205       .  T
C979        C980   1.205       .  T
C985        C993   1.434       .  S
C985        C986   1.400       .  A
C985        C990   1.401       .  A
C986        C987   1.396       .  A
C986        H995   1.084       .  S
C987        C988   1.400       .  A
C987        H996   1.083       .  S
C988        C991   1.435       .  S
C988        C989   1.401       .  A
C989        C990   1.397       .  A
C989        H997   1.084       .  S
C990        H998   1.083       .  S
C991        C992   1.203       .  T
C993        C994   1.203       .  T
C999       C1007   1.445       .  S
C999       C1000   1.402   1_554  A
C999       C1004   1.402       .  A
C1000      C1001   1.402       .  A
C1000      H1009   1.083       .  S
C1001      C1002   1.402   1_556  A
C1001      H1010   1.083       .  S
C1002      C1005   1.445   1_554  S
C1002      C1003   1.402       .  A
C1003      C1004   1.401       .  A
C1003      H1011   1.083       .  S
C1004      H1012   1.083       .  S
C1005      C1006   1.209       .  T
C1007      C1008   1.209       .  T
C1013      C1021   1.441       .  S
C1013      C1014   1.401       .  A
C1013      C1018   1.402       .  A
C1014      C1015   1.400       .  A
C1014      H1023   1.083       .  S
C1015      C1016   1.403       .  A
C1015      H1024   1.084       .  S
C1016      C1019   1.442       .  S
C1016      C1017   1.401       .  A
C1017      C1018   1.399       .  A
C1017      H1025   1.083       .  S
C1018      H1026   1.084       .  S
C1019      C1020   1.207       .  T
C1021      C1022   1.207       .  T
C1027      C1035   1.443       .  S
C1027      C1028   1.402       .  A
C1027      C1032   1.402       .  A
C1028      C1029   1.399       .  A
C1028      H1037   1.083       .  S
C1029      C1030   1.401       .  A
C1029      H1038   1.084       .  S
C1030      C1033   1.441       .  S
C1030      C1031   1.402       .  A
C1031      C1032   1.400       .  A
C1031      H1039   1.084       .  S
C1032      H1040   1.083       .  S
C1033      C1034   1.207       .  T
C1035      C1036   1.208       .  T
C1041      C1049   1.440       .  S
C1041      C1042   1.401       .  A
C1041      C1046   1.402       .  A
C1042      C1043   1.399       .  A
C1042      H1051   1.084       .  S
C1043      C1044   1.401       .  A
C1043      H1052   1.084       .  S
C1044      C1047   1.440       .  S
C1044      C1045   1.401       .  A
C1045      C1046   1.399       .  A
C1045      H1053   1.084       .  S
C1046      H1054   1.084       .  S
C1047      C1048   1.206       .  T
C1049      C1050   1.206       .  T
C1055      C1063   1.442       .  S
C1055      C1056   1.402       .  A
C1055      C1060   1.401       .  A
C1056      C1057   1.400       .  A
C1056      H1065   1.083       .  S
C1057      C1058   1.401       .  A
C1057      H1066   1.083       .  S
C1058      C1061   1.441       .  S
C1058      C1059   1.402       .  A
C1059      C1060   1.399       .  A
C1059      H1067   1.084       .  S
C1060      H1068   1.084       .  S
C1061      C1062   1.207       .  T
C1063      C1064   1.207       .  T
C1069      C1077   1.439       .  S
C1069      C1070   1.400       .  A
C1069      C1074   1.402       .  A
C1070      C1071   1.398       .  A
C1070      H1079   1.084       .  S
C1071      C1072   1.401       .  A
C1071      H1080   1.084       .  S
C1072      C1075   1.438       .  S
C1072      C1073   1.401       .  A
C1073      C1074   1.399       .  A
C1073      H1081   1.084       .  S
C1074      H1082   1.084       .  S
C1075      C1076   1.205       .  T
C1077      C1078   1.206       .  T
C1083      C1091   1.444   1_545  S
C1083      C1084   1.403       .  A
C1083      C1088   1.401       .  A
C1084      C1085   1.402       .  A
C1084      H1093   1.084       .  S
C1085      C1086   1.403       .  A
C1085      H1094   1.084       .  S
C1086      C1089   1.445       .  S
C1086      C1087   1.402       .  A
C1087      C1088   1.399       .  A
C1087      H1095   1.084       .  S
C1088      H1096   1.084       .  S
C1089      C1090   1.209       .  T
C1091      C1092   1.209       .  T
C1097      C1105   1.445       .  S
C1097      C1098   1.403       .  A
C1097      C1102   1.402       .  A
C1098      C1099   1.402       .  A
C1098      H1107   1.083       .  S
C1099      C1100   1.403       .  A
C1099      H1108   1.084       .  S
C1100      C1103   1.445       .  S
C1100      C1101   1.401       .  A
C1101      C1102   1.400       .  A
C1101      H1109   1.084       .  S
C1102      H1110   1.084       .  S
C1103      C1104   1.209       .  T
C1105      C1106   1.209       .  T
C1111      C1119   1.440       .  S
C1111      C1112   1.401       .  A
C1111      C1116   1.402       .  A
C1112      C1113   1.399       .  A
C1112      H1121   1.083       .  S
C1113      C1114   1.402       .  A
C1113      H1122   1.084       .  S
C1114      C1117   1.440       .  S
C1114      C1115   1.401       .  A
C1115      C1116   1.399       .  A
C1115      H1123   1.083       .  S
C1116      H1124   1.084       .  S
C1117      C1118   1.206       .  T
C1119      C1120   1.206       .  T
C1125      C1133   1.433   1_554  S
C1125      C1126   1.401       .  A
C1125      C1130   1.400       .  A
C1126      C1127   1.397       .  A
C1126      H1135   1.083       .  S
C1127      C1128   1.401       .  A
C1127      H1136   1.084       .  S
C1128      C1131   1.433       .  S
C1128      C1129   1.400       .  A
C1129      C1130   1.395       .  A
C1129      H1137   1.083       .  S
C1130      H1138   1.084       .  S
C1131      C1132   1.202       .  T
C1133      C1134   1.202       .  T
C1139      C1147   1.435       .  S
C1139      C1140   1.400       .  A
C1139      C1144   1.401       .  A
C1140      C1141   1.396       .  A
C1140      H1149   1.083       .  S
C1141      C1142   1.400       .  A
C1141      H1150   1.085       .  S
C1142      C1145   1.435       .  S
C1142      C1143   1.401       .  A
C1143      C1144   1.398       .  A
C1143      H1151   1.083       .  S
C1144      H1152   1.084       .  S
C1145      C1146   1.203       .  T
C1147      C1148   1.203       .  T
C1153      C1161   1.442       .  S
C1153      C1154   1.403       .  A
C1153      C1158   1.401       .  A
C1154      C1155   1.401       .  A
C1154      H1163   1.083       .  S
C1155      C1156   1.402       .  A
C1155      H1164   1.083       .  S
C1156      C1159   1.441       .  S
C1156      C1157   1.402       .  A
C1157      C1158   1.398       .  A
C1157      H1165   1.083       .  S
C1158      H1166   1.084       .  S
C1159      C1160   1.207       .  T
C1161      C1162   1.207       .  T
C1167      C1175   1.435       .  S
C1167      C1168   1.400   1_554  A
C1167      C1172   1.401   1_554  A
C1168      C1169   1.395       .  A
C1168      H1177   1.083   1_556  S
C1169      C1170   1.399       .  A
C1169      H1178   1.085       .  S
C1170      C1173   1.434       .  S
C1170      C1171   1.401       .  A
C1171      C1172   1.399       .  A
C1171      H1179   1.083       .  S
C1172      H1180   1.085       .  S
C1173      C1174   1.202       .  T
C1175      C1176   1.203       .  T
C1181      C1189   1.432       .  S
C1181      C1182   1.401       .  A
C1181      C1186   1.400       .  A
C1182      C1183   1.398       .  A
C1182      H1191   1.084       .  S
C1183      C1184   1.401       .  A
C1183      H1192   1.083       .  S
C1184      C1187   1.432       .  S
C1184      C1185   1.399       .  A
C1185      C1186   1.395       .  A
C1185      H1193   1.084       .  S
C1186      H1194   1.083       .  S
C1187      C1188   1.202       .  T
C1189      C1190   1.201       .  T
C1195      C1203   1.448       .  S
C1195      C1196   1.403       .  A
C1195      C1200   1.402       .  A
C1196      C1197   1.403       .  A
C1196      H1205   1.083       .  S
C1197      C1198   1.403       .  A
C1197      H1206   1.083       .  S
C1198      C1201   1.448   1_545  S
C1198      C1199   1.403       .  A
C1199      C1200   1.401       .  A
C1199      H1207   1.084   1_545  S
C1200      H1208   1.083       .  S
C1201      C1202   1.211       .  T
C1203      C1204   1.211       .  T
C1209      C1217   1.446       .  S
C1209      C1210   1.402       .  A
C1209      C1214   1.403       .  A
C1210      C1211   1.400       .  A
C1210      H1219   1.084       .  S
C1211      C1212   1.402       .  A
C1211      H1220   1.084       .  S
C1212      C1215   1.446       .  S
C1212      C1213   1.403       .  A
C1213      C1214   1.402       .  A
C1213      H1221   1.083       .  S
C1214      H1222   1.084       .  S
C1215      C1216   1.210       .  T
C1217      C1218   1.209       .  T
C1223      C1231   1.442       .  S
C1223      C1224   1.402       .  A
C1223      C1228   1.401       .  A
C1224      C1225   1.399       .  A
C1224      H1233   1.084       .  S
C1225      C1226   1.401       .  A
C1225      H1234   1.083       .  S
C1226      C1229   1.442       .  S
C1226      C1227   1.402       .  A
C1227      C1228   1.400       .  A
C1227      H1235   1.084       .  S
C1228      H1236   1.083       .  S
C1229      C1230   1.207       .  T
C1231      C1232   1.207       .  T
C1237      C1245   1.449       .  S
C1237      C1238   1.403       .  A
C1237      C1242   1.403       .  A
C1238      C1239   1.403       .  A
C1238      H1247   1.084       .  S
C1239      C1240   1.403       .  A
C1239      H1248   1.084       .  S
C1240      C1243   1.449       .  S
C1240      C1241   1.403       .  A
C1241      C1242   1.403       .  A
C1241      H1249   1.084       .  S
C1242      H1250   1.084       .  S
C1243      C1244   1.212       .  T
C1245      C1246   1.212       .  T
C1251      C1259   1.444       .  S
C1251      C1252   1.401       .  A
C1251      C1256   1.403       .  A
C1252      C1253   1.400       .  A
C1252      H1261   1.084       .  S
C1253      C1254   1.402       .  A
C1253      H1262   1.084       .  S
C1254      C1257   1.445       .  S
C1254      C1255   1.403       .  A
C1255      C1256   1.402       .  A
C1255      H1263   1.084       .  S
C1256      H1264   1.084       .  S
C1257      C1258   1.209       .  T
C1259      C1260   1.209       .  T
C1265      C1273   1.444       .  S
C1265      C1266   1.402       .  A
C1265      C1270   1.402       .  A
C1266      C1267   1.402       .  A
C1266      H1275   1.083       .  S
C1267      C1268   1.403       .  A
C1267      H1276   1.083       .  S
C1268      C1271   1.445       .  S
C1268      C1269   1.402       .  A
C1269      C1270   1.400       .  A
C1269      H1277   1.083       .  S
C1270      H1278   1.084       .  S
C1271      C1272   1.209       .  T
C1273      C1274   1.209       .  T
C1279      C1287   1.437       .  S
C1279      C1280   1.401       .  A
C1279      C1284   1.401       .  A
C1280      C1281   1.398       .  A
C1280      H1289   1.085   1_455  S
C1281      C1282   1.401       .  A
C1281      H1290   1.083   1_455  S
C1282      C1285   1.437       .  S
C1282      C1283   1.401       .  A
C1283      C1284   1.398       .  A
C1283      H1291   1.085       .  S
C1284      H1292   1.083       .  S
C1285      C1286   1.204       .  T
C1287      C1288   1.204       .  T
C1293      C1301   1.437       .  S
C1293      C1294   1.401   1_554  A
C1293      C1298   1.401   1_554  A
C1294      C1295   1.399       .  A
C1294      H1303   1.083       .  S
C1295      C1296   1.401       .  A
C1295      H1304   1.084       .  S
C1296      C1299   1.437   1_655  S
C1296      C1297   1.400       .  A
C1297      C1298   1.396       .  A
C1297      H1305   1.083       .  S
C1298      H1306   1.085   1_556  S
C1299      C1300   1.204       .  T
C1301      C1302   1.204       .  T
C1307      C1315   1.436   1_554  S
C1307      C1308   1.401       .  A
C1307      C1312   1.400       .  A
C1308      C1309   1.398       .  A
C1308      H1317   1.083       .  S
C1309      C1310   1.401       .  A
C1309      H1318   1.084   1_455  S
C1310      C1313   1.436       .  S
C1310      C1311   1.400       .  A
C1311      C1312   1.397       .  A
C1311      H1319   1.083       .  S
C1312      H1320   1.084       .  S
C1313      C1314   1.204       .  T
C1315      C1316   1.204       .  T
C1321      C1329   1.436   1_655  S
C1321      C1322   1.401       .  A
C1321      C1326   1.400       .  A
C1322      C1323   1.398       .  A
C1322      H1331   1.083       .  S
C1323      C1324   1.400       .  A
C1323      H1332   1.085       .  S
C1324      C1327   1.436       .  S
C1324      C1325   1.401       .  A
C1325      C1326   1.397       .  A
C1325      H1333   1.083       .  S
C1326      H1334   1.085       .  S
C1327      C1328   1.204       .  T
C1329      C1330   1.203       .  T
C1335      C1343   1.447       .  S
C1335      C1336   1.402       .  A
C1335      C1340   1.403       .  A
C1336      C1337   1.400       .  A
C1336      H1345   1.084       .  S
C1337      C1338   1.402       .  A
C1337      H1346   1.084       .  S
C1338      C1341   1.447       .  S
C1338      C1339   1.403       .  A
C1339      C1340   1.403       .  A
C1339      H1347   1.084       .  S
C1340      H1348   1.083       .  S
C1341      C1342   1.210       .  T
C1343      C1344   1.210       .  T
C1349      C1357   1.440       .  S
C1349      C1350   1.401       .  A
C1349      C1354   1.402       .  A
C1350      C1351   1.399       .  A
C1350      H1359   1.084       .  S
C1351      C1352   1.402       .  A
C1351      H1360   1.083       .  S
C1352      C1355   1.441       .  S
C1352      C1353   1.401       .  A
C1353      C1354   1.400       .  A
C1353      H1361   1.083       .  S
C1354      H1362   1.083       .  S
C1355      C1356   1.206       .  T
C1357      C1358   1.206       .  T
C1363      C1371   1.440       .  S
C1363      C1364   1.400       .  A
C1363      C1368   1.403       .  A
C1364      C1365   1.398       .  A
C1364      H1373   1.084       .  S
C1365      C1366   1.402       .  A
C1365      H1374   1.083       .  S
C1366      C1369   1.440       .  S
C1366      C1367   1.401       .  A
C1367      C1368   1.400       .  A
C1367      H1375   1.084       .  S
C1368      H1376   1.083       .  S
C1369      C1370   1.206       .  T
C1371      C1372   1.206       .  T
C1377      C1385   1.438       .  S
C1377      C1378   1.402       .  A
C1377      C1382   1.400       .  A
C1378      C1379   1.399       .  A
C1378      H1387   1.084       .  S
C1379      C1380   1.401       .  A
C1379      H1388   1.083       .  S
C1380      C1383   1.439       .  S
C1380      C1381   1.402       .  A
C1381      C1382   1.398       .  A
C1381      H1389   1.085       .  S
C1382      H1390   1.083       .  S
C1383      C1384   1.205       .  T
C1385      C1386   1.205       .  T
C1391      C1399   1.447       .  S
C1391      C1392   1.402       .  A
C1391      C1396   1.403       .  A
C1392      C1393   1.401       .  A
C1392      H1401   1.084       .  S
C1393      C1394   1.402       .  A
C1393      H1402   1.083       .  S
C1394      C1397   1.447       .  S
C1394      C1395   1.403       .  A
C1395      C1396   1.403       .  A
C1395      H1403   1.083       .  S
C1396      H1404   1.083       .  S
C1397      C1398   1.210       .  T
C1399      C1400   1.210       .  T
C1405      C1413   1.445       .  S
C1405      C1406   1.403       .  A
C1405      C1410   1.402       .  A
C1406      C1407   1.401       .  A
C1406      H1415   1.083       .  S
C1407      C1408   1.402       .  A
C1407      H1416   1.083       .  S
C1408      C1411   1.444       .  S
C1408      C1409   1.403       .  A
C1409      C1410   1.401       .  A
C1409      H1417   1.083       .  S
C1410      H1418   1.083       .  S
C1411      C1412   1.209       .  T
C1413      C1414   1.209       .  T
C1419      C1427   1.435       .  S
C1419      C1420   1.401       .  A
C1419      C1424   1.400       .  A
C1420      C1421   1.397       .  A
C1420      H1429   1.085       .  S
C1421      C1422   1.400       .  A
C1421      H1430   1.083       .  S
C1422      C1425   1.435       .  S
C1422      C1423   1.401       .  A
C1423      C1424   1.397       .  A
C1423      H1431   1.085       .  S
C1424      H1432   1.083       .  S
C1425      C1426   1.203       .  T
C1427      C1428   1.203       .  T
C1433      C1441   1.445       .  S
C1433      C1434   1.402       .  A
C1433      C1438   1.402       .  A
C1434      C1435   1.401       .  A
C1434      H1443   1.084       .  S
C1435      C1436   1.403       .  A
C1435      H1444   1.083       .  S
C1436      C1439   1.445       .  S
C1436      C1437   1.402       .  A
C1437      C1438   1.400       .  A
C1437      H1445   1.084       .  S
C1438      H1446   1.084       .  S
C1439      C1440   1.209       .  T
C1441      C1442   1.209       .  T
C1447      C1455   1.448       .  S
C1447      C1448   1.402       .  A
C1447      C1452   1.404       .  A
C1448      C1449   1.401       .  A
C1448      H1457   1.083       .  S
C1449      C1450   1.402       .  A
C1449      H1458   1.083       .  S
C1450      C1453   1.448       .  S
C1450      C1451   1.404       .  A
C1451      C1452   1.404       .  A
C1451      H1459   1.083       .  S
C1452      H1460   1.083       .  S
C1453      C1454   1.211       .  T
C1455      C1456   1.211       .  T
C1461      C1469   1.443       .  S
C1461      C1462   1.402       .  A
C1461      C1466   1.401       .  A
C1462      C1463   1.400       .  A
C1462      H1471   1.084       .  S
C1463      C1464   1.401       .  A
C1463      H1472   1.084       .  S
C1464      C1467   1.443       .  S
C1464      C1465   1.403       .  A
C1465      C1466   1.401       .  A
C1465      H1473   1.084       .  S
C1466      H1474   1.084       .  S
C1467      C1468   1.208       .  T
C1469      C1470   1.208       .  T
C1475      C1483   1.440       .  S
C1475      C1476   1.402       .  A
C1475      C1480   1.401       .  A
C1476      C1477   1.400       .  A
C1476      H1485   1.084       .  S
C1477      C1478   1.401       .  A
C1477      H1486   1.083       .  S
C1478      C1481   1.441       .  S
C1478      C1479   1.402       .  A
C1479      C1480   1.399       .  A
C1479      H1487   1.084       .  S
C1480      H1488   1.083       .  S
C1481      C1482   1.207       .  T
C1483      C1484   1.206       .  T
C1489      C1497   1.443       .  S
C1489      C1490   1.402       .  A
C1489      C1494   1.402       .  A
C1490      C1491   1.400       .  A
C1490      H1499   1.083       .  S
C1491      C1492   1.401       .  A
C1491      H1500   1.083       .  S
C1492      C1495   1.443       .  S
C1492      C1493   1.403       .  A
C1493      C1494   1.400       .  A
C1493      H1501   1.083       .  S
C1494      H1502   1.084       .  S
C1495      C1496   1.208       .  T
C1497      C1498   1.208       .  T
C1503      C1511   1.433       .  S
C1503      C1504   1.399       .  A
C1503      C1508   1.401       .  A
C1504      C1505   1.395       .  A
C1504      H1513   1.084       .  S
C1505      C1506   1.400       .  A
C1505      H1514   1.084       .  S
C1506      C1509   1.433       .  S
C1506      C1507   1.400       .  A
C1507      C1508   1.398       .  A
C1507      H1515   1.084       .  S
C1508      H1516   1.084       .  S
C1509      C1510   1.202       .  T
C1511      C1512   1.202       .  T
C1517      C1525   1.437       .  S
C1517      C1518   1.401       .  A
C1517      C1522   1.401       .  A
C1518      C1519   1.398       .  A
C1518      H1527   1.085       .  S
C1519      C1520   1.401       .  A
C1519      H1528   1.082       .  S
C1520      C1523   1.436       .  S
C1520      C1521   1.401       .  A
C1521      C1522   1.397       .  A
C1521      H1529   1.085       .  S
C1522      H1530   1.082       .  S
C1523      C1524   1.204       .  T
C1525      C1526   1.204       .  T
C1531      C1539   1.442       .  S
C1531      C1532   1.402       .  A
C1531      C1536   1.401       .  A
C1532      C1533   1.401       .  A
C1532      H1541   1.083       .  S
C1533      C1534   1.402       .  A
C1533      H1542   1.083       .  S
C1534      C1537   1.442       .  S
C1534      C1535   1.401       .  A
C1535      C1536   1.399       .  A
C1535      H1543   1.083       .  S
C1536      H1544   1.084       .  S
C1537      C1538   1.207       .  T
C1539      C1540   1.207       .  T
C1545      C1553   1.437       .  S
C1545      C1546   1.401       .  A
C1545      C1550   1.401       .  A
C1546      C1547   1.398       .  A
C1546      H1555   1.084       .  S
C1547      C1548   1.401       .  A
C1547      H1556   1.084       .  S
C1548      C1551   1.437       .  S
C1548      C1549   1.401       .  A
C1549      C1550   1.398       .  A
C1549      H1557   1.084       .  S
C1550      H1558   1.083       .  S
C1551      C1552   1.204       .  T
C1553      C1554   1.204       .  T
C1559      C1567   1.436       .  S
C1559      C1560   1.400       .  A
C1559      C1564   1.401       .  A
C1560      C1561   1.397       .  A
C1560      H1569   1.085       .  S
C1561      C1562   1.400       .  A
C1561      H1570   1.083       .  S
C1562      C1565   1.436       .  S
C1562      C1563   1.401       .  A
C1563      C1564   1.398       .  A
C1563      H1571   1.084       .  S
C1564      H1572   1.083       .  S
C1565      C1566   1.204       .  T
C1567      C1568   1.203       .  T
C1573      C1581   1.449       .  S
C1573      C1574   1.403   1_554  A
C1573      C1578   1.403       .  A
C1574      C1575   1.404       .  A
C1574      H1583   1.083       .  S
C1575      C1576   1.403   1_556  A
C1575      H1584   1.083       .  S
C1576      C1579   1.449   1_554  S
C1576      C1577   1.402       .  A
C1577      C1578   1.401       .  A
C1577      H1585   1.083       .  S
C1578      H1586   1.083       .  S
C1579      C1580   1.211       .  T
C1581      C1582   1.211       .  T
C1587      C1595   1.441       .  S
C1587      C1588   1.401       .  A
C1587      C1592   1.402       .  A
C1588      C1589   1.399       .  A
C1588      H1597   1.084       .  S
C1589      C1590   1.402       .  A
C1589      H1598   1.083       .  S
C1590      C1593   1.441       .  S
C1590      C1591   1.401       .  A
C1591      C1592   1.399       .  A
C1591      H1599   1.084       .  S
C1592      H1600   1.084       .  S
C1593      C1594   1.207       .  T
C1595      C1596   1.207       .  T
C1601      C1609   1.442       .  S
C1601      C1602   1.402       .  A
C1601      C1606   1.401       .  A
C1602      C1603   1.401       .  A
C1602      H1611   1.083       .  S
C1603      C1604   1.402       .  A
C1603      H1612   1.083       .  S
C1604      C1607   1.442       .  S
C1604      C1605   1.401       .  A
C1605      C1606   1.399       .  A
C1605      H1613   1.084       .  S
C1606      H1614   1.084       .  S
C1607      C1608   1.207       .  T
C1609      C1610   1.208       .  T
C1615      C1623   1.440       .  S
C1615      C1616   1.402       .  A
C1615      C1620   1.401       .  A
C1616      C1617   1.398       .  A
C1616      H1625   1.084       .  S
C1617      C1618   1.401       .  A
C1617      H1626   1.083       .  S
C1618      C1621   1.440       .  S
C1618      C1619   1.402       .  A
C1619      C1620   1.400       .  A
C1619      H1627   1.084       .  S
C1620      H1628   1.083       .  S
C1621      C1622   1.206       .  T
C1623      C1624   1.206       .  T
C1629      C1637   1.445       .  S
C1629      C1630   1.402       .  A
C1629      C1634   1.403       .  A
C1630      C1631   1.402       .  A
C1630      H1639   1.084       .  S
C1631      C1632   1.403       .  A
C1631      H1640   1.084       .  S
C1632      C1635   1.445       .  S
C1632      C1633   1.402       .  A
C1633      C1634   1.401       .  A
C1633      H1641   1.084       .  S
C1634      H1642   1.084       .  S
C1635      C1636   1.209       .  T
C1637      C1638   1.209       .  T
C1643      C1651   1.441       .  S
C1643      C1644   1.401       .  A
C1643      C1648   1.402       .  A
C1644      C1645   1.400       .  A
C1644      H1653   1.083       .  S
C1645      C1646   1.402       .  A
C1645      H1654   1.084       .  S
C1646      C1649   1.440       .  S
C1646      C1647   1.401       .  A
C1647      C1648   1.399       .  A
C1647      H1655   1.083       .  S
C1648      H1656   1.084       .  S
C1649      C1650   1.206       .  T
C1651      C1652   1.206       .  T
C1657      C1665   1.444       .  S
C1657      C1658   1.403       .  A
C1657      C1662   1.402       .  A
C1658      C1659   1.401       .  A
C1658      H1667   1.083       .  S
C1659      C1660   1.403       .  A
C1659      H1668   1.083       .  S
C1660      C1663   1.444       .  S
C1660      C1661   1.402       .  A
C1661      C1662   1.400       .  A
C1661      H1669   1.084       .  S
C1662      H1670   1.083       .  S
C1663      C1664   1.208       .  T
C1665      C1666   1.209       .  T
C1671      C1679   1.443       .  S
C1671      C1672   1.402       .  A
C1671      C1676   1.402       .  A
C1672      C1673   1.399       .  A
C1672      H1681   1.084       .  S
C1673      C1674   1.401       .  A
C1673      H1682   1.083       .  S
C1674      C1677   1.443       .  S
C1674      C1675   1.402       .  A
C1675      C1676   1.401       .  A
C1675      H1683   1.083       .  S
C1676      H1684   1.083       .  S
C1677      C1678   1.208       .  T
C1679      C1680   1.208       .  T
C1685      C1693   1.441       .  S
C1685      C1686   1.400       .  A
C1685      C1690   1.403       .  A
C1686      C1687   1.397       .  A
C1686      H1695   1.083       .  S
C1687      C1688   1.401       .  A
C1687      H1696   1.085       .  S
C1688      C1691   1.440       .  S
C1688      C1689   1.402       .  A
C1689      C1690   1.401       .  A
C1689      H1697   1.082       .  S
C1690      H1698   1.084       .  S
C1691      C1692   1.206       .  T
C1693      C1694   1.206       .  T
C1699      C1707   1.445       .  S
C1699      C1700   1.403       .  A
C1699      C1704   1.402       .  A
C1700      C1701   1.401       .  A
C1700      H1709   1.084       .  S
C1701      C1702   1.402       .  A
C1701      H1710   1.083       .  S
C1702      C1705   1.445       .  S
C1702      C1703   1.402       .  A
C1703      C1704   1.401       .  A
C1703      H1711   1.084       .  S
C1704      H1712   1.083       .  S
C1705      C1706   1.209       .  T
C1707      C1708   1.209       .  T
C1713      C1721   1.438       .  S
C1713      C1714   1.401       .  A
C1713      C1718   1.401       .  A
C1714      C1715   1.399       .  A
C1714      H1723   1.084       .  S
C1715      C1716   1.401       .  A
C1715      H1724   1.084       .  S
C1716      C1719   1.438   1_554  S
C1716      C1717   1.401       .  A
C1717      C1718   1.398       .  A
C1717      H1725   1.084       .  S
C1718      H1726   1.084       .  S
C1719      C1720   1.205       .  T
C1721      C1722   1.205       .  T
C1727      C1735   1.436       .  S
C1727      C1728   1.401       .  A
C1727      C1732   1.401       .  A
C1728      C1729   1.398       .  A
C1728      H1737   1.083       .  S
C1729      C1730   1.401       .  A
C1729      H1738   1.085       .  S
C1730      C1733   1.436       .  S
C1730      C1731   1.401       .  A
C1731      C1732   1.397       .  A
C1731      H1739   1.083       .  S
C1732      H1740   1.085       .  S
C1733      C1734   1.204       .  T
C1735      C1736   1.204       .  T
C1741      C1749   1.443       .  S
C1741      C1742   1.402       .  A
C1741      C1746   1.402       .  A
C1742      C1743   1.400       .  A
C1742      H1751   1.084       .  S
C1743      C1744   1.402       .  A
C1743      H1752   1.084       .  S
C1744      C1747   1.443       .  S
C1744      C1745   1.402       .  A
C1745      C1746   1.400       .  A
C1745      H1753   1.084       .  S
C1746      H1754   1.084       .  S
C1747      C1748   1.208       .  T
C1749      C1750   1.208       .  T
C1755      C1763   1.437       .  S
C1755      C1756   1.401       .  A
C1755      C1760   1.401       .  A
C1756      C1757   1.398       .  A
C1756      H1765   1.085       .  S
C1757      C1758   1.401       .  A
C1757      H1766   1.083       .  S
C1758      C1761   1.437       .  S
C1758      C1759   1.401       .  A
C1759      C1760   1.397       .  A
C1759      H1767   1.085       .  S
C1760      H1768   1.083       .  S
C1761      C1762   1.204       .  T
C1763      C1764   1.204       .  T
C1769      C1777   1.437       .  S
C1769      C1770   1.401   1_554  A
C1769      C1774   1.400       .  A
C1770      C1771   1.400       .  A
C1770      H1779   1.083       .  S
C1771      C1772   1.402       .  A
C1771      H1780   1.084       .  S
C1772      C1775   1.437       .  S
C1772      C1773   1.400       .  A
C1773      C1774   1.396   1_556  A
C1773      H1781   1.083       .  S
C1774      H1782   1.085       .  S
C1775      C1776   1.205       .  T
C1777      C1778   1.204       .  T
C1783      C1791   1.451       .  S
C1783      C1784   1.404       .  A
C1783      C1788   1.403       .  A
C1784      C1785   1.405       .  A
C1784      H1793   1.083       .  S
C1785      C1786   1.404       .  A
C1785      H1794   1.084       .  S
C1786      C1789   1.451       .  S
C1786      C1787   1.403       .  A
C1787      C1788   1.402       .  A
C1787      H1795   1.084       .  S
C1788      H1796   1.084       .  S
C1789      C1790   1.212       .  T
C1791      C1792   1.213       .  T
C1797      C1805   1.441       .  S
C1797      C1798   1.402       .  A
C1797      C1802   1.401       .  A
C1798      C1799   1.400       .  A
C1798      H1807   1.084       .  S
C1799      C1800   1.402       .  A
C1799      H1808   1.084       .  S
C1800      C1803   1.441       .  S
C1800      C1801   1.401       .  A
C1801      C1802   1.398       .  A
C1801      H1809   1.084       .  S
C1802      H1810   1.084       .  S
C1803      C1804   1.206       .  T
C1805      C1806   1.207       .  T
C1811      C1819   1.439       .  S
C1811      C1812   1.402       .  A
C1811      C1816   1.401       .  A
C1812      C1813   1.398       .  A
C1812      H1821   1.085       .  S
C1813      C1814   1.400       .  A
C1813      H1822   1.083       .  S
C1814      C1817   1.438       .  S
C1814      C1815   1.402       .  A
C1815      C1816   1.399       .  A
C1815      H1823   1.084       .  S
C1816      H1824   1.083       .  S
C1817      C1818   1.205       .  T
C1819      C1820   1.206       .  T
C1825      C1833   1.446       .  S
C1825      C1826   1.402       .  A
C1825      C1830   1.403       .  A
C1826      C1827   1.401       .  A
C1826      H1835   1.084       .  S
C1827      C1828   1.402       .  A
C1827      H1836   1.083       .  S
C1828      C1831   1.447       .  S
C1828      C1829   1.403       .  A
C1829      C1830   1.402       .  A
C1829      H1837   1.084       .  S
C1830      H1838   1.083       .  S
C1831      C1832   1.210       .  T
C1833      C1834   1.210       .  T
C1839      C1847   1.448       .  S
C1839      C1840   1.402       .  A
C1839      C1844   1.403   1_554  A
C1840      C1841   1.401       .  A
C1840      H1849   1.083       .  S
C1841      C1842   1.402       .  A
C1841      H1850   1.083       .  S
C1842      C1845   1.447   1_554  S
C1842      C1843   1.403   1_554  A
C1843      C1844   1.403       .  A
C1843      H1851   1.083       .  S
C1844      H1852   1.083       .  S
C1845      C1846   1.210       .  T
C1847      C1848   1.211       .  T
C1853      C1861   1.443       .  S
C1853      C1854   1.403       .  A
C1853      C1858   1.401       .  A
C1854      C1855   1.402       .  A
C1854      H1863   1.083       .  S
C1855      C1856   1.402       .  A
C1855      H1864   1.083       .  S
C1856      C1859   1.442       .  S
C1856      C1857   1.401       .  A
C1857      C1858   1.398       .  A
C1857      H1865   1.084       .  S
C1858      H1866   1.084       .  S
C1859      C1860   1.207       .  T
C1861      C1862   1.208       .  T
C1867      C1875   1.440       .  S
C1867      C1868   1.402       .  A
C1867      C1872   1.401       .  A
C1868      C1869   1.399       .  A
C1868      H1877   1.084       .  S
C1869      C1870   1.400       .  A
C1869      H1878   1.084       .  S
C1870      C1873   1.441       .  S
C1870      C1871   1.403       .  A
C1871      C1872   1.400       .  A
C1871      H1879   1.084       .  S
C1872      H1880   1.084       .  S
C1873      C1874   1.206       .  T
C1875      C1876   1.206       .  T
C1881      C1889   1.443       .  S
C1881      C1882   1.401       .  A
C1881      C1886   1.403       .  A
C1882      C1883   1.400       .  A
C1882      H1891   1.084       .  S
C1883      C1884   1.402       .  A
C1883      H1892   1.084       .  S
C1884      C1887   1.443       .  S
C1884      C1885   1.402       .  A
C1885      C1886   1.401       .  A
C1885      H1893   1.084       .  S
C1886      H1894   1.084       .  S
C1887      C1888   1.208       .  T
C1889      C1890   1.208       .  T
C1895      C1903   1.436       .  S
C1895      C1896   1.401       .  A
C1895      C1900   1.401       .  A
C1896      C1897   1.397       .  A
C1896      H1905   1.084       .  S
C1897      C1898   1.401       .  A
C1897      H1906   1.083       .  S
C1898      C1901   1.436       .  S
C1898      C1899   1.401       .  A
C1899      C1900   1.398       .  A
C1899      H1907   1.084       .  S
C1900      H1908   1.083       .  S
C1901      C1902   1.204       .  T
C1903      C1904   1.204       .  T
C1909      C1917   1.438       .  S
C1909      C1910   1.402       .  A
C1909      C1914   1.400       .  A
C1910      C1911   1.400       .  A
C1910      H1919   1.084       .  S
C1911      C1912   1.401       .  A
C1911      H1920   1.084       .  S
C1912      C1915   1.437       .  S
C1912      C1913   1.401       .  A
C1913      C1914   1.397       .  A
C1913      H1921   1.084       .  S
C1914      H1922   1.084       .  S
C1915      C1916   1.204       .  T
C1917      C1918   1.205       .  T
C1923      C1931   1.440       .  S
C1923      C1924   1.402       .  A
C1923      C1928   1.401       .  A
C1924      C1925   1.398       .  A
C1924      H1933   1.084       .  S
C1925      C1926   1.401       .  A
C1925      H1934   1.084       .  S
C1926      C1929   1.440       .  S
C1926      C1927   1.402       .  A
C1927      C1928   1.400       .  A
C1927      H1935   1.084       .  S
C1928      H1936   1.084       .  S
C1929      C1930   1.206       .  T
C1931      C1932   1.206       .  T
C1937      C1945   1.443       .  S
C1937      C1938   1.402       .  A
C1937      C1942   1.402       .  A
C1938      C1939   1.400       .  A
C1938      H1947   1.083       .  S
C1939      C1940   1.402       .  A
C1939      H1948   1.083       .  S
C1940      C1943   1.443       .  S
C1940      C1941   1.402       .  A
C1941      C1942   1.401       .  A
C1941      H1949   1.083       .  S
C1942      H1950   1.083       .  S
C1943      C1944   1.208       .  T
C1945      C1946   1.208       .  T
C1951      C1959   1.444       .  S
C1951      C1952   1.402       .  A
C1951      C1956   1.402       .  A
C1952      C1953   1.400       .  A
C1952      H1961   1.084       .  S
C1953      C1954   1.402       .  A
C1953      H1962   1.083       .  S
C1954      C1957   1.445       .  S
C1954      C1955   1.403       .  A
C1955      C1956   1.402       .  A
C1955      H1963   1.084       .  S
C1956      H1964   1.083       .  S
C1957      C1958   1.209       .  T
C1959      C1960   1.209       .  T
C1965      C1973   1.436       .  S
C1965      C1966   1.401       .  A
C1965      C1970   1.401       .  A
C1966      C1967   1.397       .  A
C1966      H1975   1.085       .  S
C1967      C1968   1.401       .  A
C1967      H1976   1.083       .  S
C1968      C1971   1.436       .  S
C1968      C1969   1.401       .  A
C1969      C1970   1.398       .  A
C1969      H1977   1.085       .  S
C1970      H1978   1.083       .  S
C1971      C1972   1.204       .  T
C1973      C1974   1.204       .  T
C1979      C1987   1.438       .  S
C1979      C1980   1.401       .  A
C1979      C1984   1.401       .  A
C1980      C1981   1.399       .  A
C1980      H1989   1.083       .  S
C1981      C1982   1.401       .  A
C1981      H1990   1.085       .  S
C1982      C1985   1.438       .  S
C1982      C1983   1.401       .  A
C1983      C1984   1.398       .  A
C1983      H1991   1.083       .  S
C1984      H1992   1.085       .  S
C1985      C1986   1.205       .  T
C1987      C1988   1.205       .  T
C1993      C2001   1.444       .  S
C1993      C1994   1.402       .  A
C1993      C1998   1.402       .  A
C1994      C1995   1.400       .  A
C1994      H2003   1.083       .  S
C1995      C1996   1.402       .  A
C1995      H2004   1.083       .  S
C1996      C1999   1.443       .  S
C1996      C1997   1.402       .  A
C1997      C1998   1.401       .  A
C1997      H2005   1.083       .  S
C1998      H2006   1.083       .  S
C1999      C2000   1.208       .  T
C2001      C2002   1.208       .  T
C2007      C2015   1.441       .  S
C2007      C2008   1.402       .  A
C2007      C2012   1.401       .  A
C2008      C2009   1.401       .  A
C2008      H2017   1.084       .  S
C2009      C2010   1.403       .  A
C2009      H2018   1.083       .  S
C2010      C2013   1.440       .  S
C2010      C2011   1.400       .  A
C2011      C2012   1.397       .  A
C2011      H2019   1.084       .  S
C2012      H2020   1.084       .  S
C2013      C2014   1.206       .  T
C2015      C2016   1.207       .  T
C2021      C2029   1.446       .  S
C2021      C2022   1.402       .  A
C2021      C2026   1.403       .  A
C2022      C2023   1.400       .  A
C2022      H2031   1.083       .  S
C2023      C2024   1.401       .  A
C2023      H2032   1.084       .  S
C2024      C2027   1.445       .  S
C2024      C2025   1.403       .  A
C2025      C2026   1.402       .  A
C2025      H2033   1.083       .  S
C2026      H2034   1.084       .  S
C2027      C2028   1.209       .  T
C2029      C2030   1.209       .  T
C2035      C2043   1.443       .  S
C2035      C2036   1.402       .  A
C2035      C2040   1.402       .  A
C2036      C2037   1.401       .  A
C2036      H2045   1.083       .  S
C2037      C2038   1.402       .  A
C2037      H2046   1.083       .  S
C2038      C2041   1.443       .  S
C2038      C2039   1.401       .  A
C2039      C2040   1.400       .  A
C2039      H2047   1.083       .  S
C2040      H2048   1.084       .  S
C2041      C2042   1.208       .  T
C2043      C2044   1.208       .  T
