geometry optimzed in LAMMPS
_audit_creation_date              2020-12-01 
_audit_creation_method            'lammps2cif' 
_symmetry_space_group_name_H-M    'P1' 
_symmetry_Int_Tables_number       1 
_symmetry_cell_setting            triclinic 
loop_ 
_symmetry_equiv_pos_as_xyz 
  x,y,z 
_cell_length_a                    40.1538306 
_cell_length_b                    40.15731431831782 
_cell_length_c                    40.79599029761216 
_cell_angle_alpha                 90.01222458360496 
_cell_angle_beta                  90.01341958327188 
_cell_angle_gamma                 90.00215171740474 
loop_ 
_atom_site_label 
_atom_site_type_symbol 
_atom_site_fract_x 
_atom_site_fract_y 
_atom_site_fract_z 
_atom_site_charge 
O1          O  0.00539429  0.45488470  0.21606273    -0.72700
O2          O  0.95487979  0.50604698  0.28664775    -0.73700
O3          O  0.95529697  0.50574031  0.21585550    -0.62300
O4          O  0.00460625  0.45488373  0.28720587    -0.70700
O5          O  0.04397595  0.49356166  0.28731083    -0.70300
O6          O  0.99475916  0.54434350  0.21576378    -0.61500
O7          O  0.99423628  0.54475723  0.28646807    -0.74000
O8          O  0.04468971  0.49364549  0.21641582    -0.72800
Cu9        Cu  0.97868974  0.47903449  0.25143098     1.04600
Cu10       Cu  0.02076169  0.52036156  0.25151528     1.04300
C11         C  0.03278996  0.46656442  0.20475945     0.93500
C12         C  0.96682182  0.53335884  0.29784821     0.92600
C13         C  0.96738461  0.53281847  0.20433662     0.84800
C14         C  0.03185614  0.46647405  0.29884768     0.91000
N15         N  0.94598631  0.20338795  0.42708504    -0.27100
N16         N  0.94652077  0.17430259  0.44230072    -0.34900
C17         C  0.97134995  0.17450203  0.46431761     0.01300
C18         C  0.98625578  0.20553532  0.46395334     0.07300
C19         C  0.97011626  0.22299722  0.43951032    -0.05800
H20         H  0.97800868  0.15337789  0.47923960     0.08000
H21         H  0.97502898  0.24831312  0.43182626     0.09200
Cu22       Cu  0.91024245  0.13745785  0.43758532     0.44200
Cu23       Cu  0.91242189  0.21491011  0.39034775     0.42000
Cu24       Cu  0.84240772  0.15754043  0.38607174     0.43900
N25         N  0.86432919  0.11341472  0.44040340    -0.34500
N26         N  0.83843221  0.12241392  0.42256564    -0.28700
C27         C  0.81101429  0.10671533  0.43360126    -0.04800
C28         C  0.82003716  0.08715313  0.46000270     0.07400
C29         C  0.85418139  0.09127764  0.46294821     0.01200
H30         H  0.78613031  0.11047583  0.42410873     0.08900
H31         H  0.87065589  0.07930756  0.48012710     0.07900
N32         N  0.85225144  0.19395294  0.35187287    -0.35900
N33         N  0.87699797  0.21559981  0.35354066    -0.28100
C34         C  0.87371413  0.23783447  0.32905126    -0.03300
C35         C  0.84561850  0.22950690  0.31122730     0.05300
C36         C  0.83278230  0.20156226  0.32630583     0.03400
H37         H  0.88937670  0.25949743  0.32575540     0.08500
H38         H  0.80958776  0.18910078  0.32063542     0.07300
N39         N  0.93688279  0.21467951  0.06717239    -0.27100
N40         N  0.93967483  0.18293596  0.05895196    -0.34900
C41         C  0.96808925  0.17890876  0.04206394     0.01300
C42         C  0.98301670  0.20972393  0.03849681     0.07300
C43         C  0.96300077  0.23172056  0.05525101    -0.05800
H44         H  0.97674212  0.15532682  0.03266675     0.08000
H45         H  0.96644395  0.25834466  0.05755248     0.09200
Cu46       Cu  0.90175426  0.14783028  0.06415365     0.44200
Cu47       Cu  0.89742256  0.23384359  0.09293433     0.42000
Cu48       Cu  0.82356210  0.18438986  0.08596021     0.43900
N49         N  0.85596326  0.12477950  0.05603480    -0.34500
N50         N  0.82733471  0.14005379  0.06136736    -0.28700
C51         C  0.80237957  0.12187415  0.04878764    -0.04800
C52         C  0.81589739  0.09383645  0.03465695     0.07400
C53         C  0.84982543  0.09589949  0.04044467     0.01200
H54         H  0.77640706  0.12905503  0.04905448     0.08900
H55         H  0.86877357  0.07817579  0.03346135     0.07900
N56         N  0.82931607  0.22178262  0.11969280    -0.35900
N57         N  0.85641403  0.24024355  0.12220312    -0.28100
C58         C  0.85438237  0.25895681  0.14937050    -0.03300
C59         C  0.82478108  0.25136501  0.16477822     0.05300
C60         C  0.80934136  0.22795384  0.14530410     0.03400
H61         H  0.87388769  0.27521995  0.15824327     0.08500
H62         H  0.78619181  0.21508883  0.15019364     0.07300
C63         C  0.04793849  0.22605168  0.47112808     0.45700
H64         H  0.04906711  0.22542910  0.44390664    -0.03300
C65         C  0.04572083  0.22725974  0.03499496     0.45700
H66         H  0.04466900  0.22777940  0.06221799    -0.03300
C67         C  0.07119250  0.20064808  0.48758225    -0.17000
C68         C  0.05751291  0.26001240  0.48582829    -0.16800
C69         C  0.01363046  0.21740186  0.48514675    -0.17200
C70         C  0.06984541  0.20096392  0.02135600    -0.17100
C71         C  0.05666877  0.26055710  0.01959690    -0.16700
C72         C  0.01247728  0.21825564  0.01881497    -0.17000
O73         O  0.79201088  0.32814844  0.29159197    -0.72700
O74         O  0.82845235  0.28805270  0.20977672    -0.73700
O75         O  0.78065215  0.33727306  0.22289406    -0.62300
O76         O  0.83913810  0.27822983  0.27842274    -0.70700
O77         O  0.79954979  0.23957387  0.27722030    -0.70300
O78         O  0.74092404  0.29883855  0.22556284    -0.61500
O79         O  0.78769593  0.25057003  0.20962145    -0.74000
O80         O  0.75339620  0.28850611  0.29317629    -0.72800
Cu81       Cu  0.81153326  0.30933771  0.25062399     1.04600
Cu82       Cu  0.76904212  0.26807665  0.25143920     1.04300
C83         C  0.76762564  0.31386861  0.30583186     0.93500
C84         C  0.81319416  0.26380673  0.19627117     0.92600
C85         C  0.75181318  0.32655115  0.21477684     0.84800
C86         C  0.82777801  0.24987130  0.28727235     0.91000
N87         N  0.72065533  0.43708512  0.43780381    -0.27100
N88         N  0.68866184  0.43913753  0.44533572    -0.34900
C89         C  0.68349982  0.46724014  0.46239648     0.01300
C90         C  0.71373173  0.48299397  0.46674020     0.07300
C91         C  0.73669881  0.46361663  0.45034015    -0.05800
H92         H  0.65943143  0.47530599  0.47107008     0.08000
H93         H  0.76321552  0.46799886  0.44838566     0.09200
Cu94       Cu  0.65379306  0.40148556  0.43815265     0.44200
Cu95       Cu  0.74090243  0.39836671  0.41106583     0.42000
Cu96       Cu  0.68985425  0.32454788  0.41637786     0.43900
N97         N  0.62946946  0.35620664  0.44452615    -0.34500
N98         N  0.64453863  0.32754237  0.43903803    -0.28700
C99         C  0.62578017  0.30254793  0.45066757    -0.04800
C100        C  0.59755516  0.31614778  0.46438231     0.07400
C101        C  0.60018255  0.35015756  0.45935849     0.01200
H102        H  0.63287622  0.27655387  0.45045065     0.08900
H103        H  0.58273456  0.36920485  0.46667647     0.07900
N104        N  0.72726055  0.33087457  0.38294839    -0.35900
N105        N  0.74622403  0.35766035  0.38058605    -0.28100
C106        C  0.76455360  0.35544719  0.35308542    -0.03300
C107        C  0.75607048  0.32610581  0.33746050     0.05300
C108        C  0.73263061  0.31108214  0.35708746     0.03400
H109        H  0.78122697  0.37459687  0.34422058     0.08500
H110        H  0.71918865  0.28826312  0.35217773     0.07300
N111        N  0.70400445  0.44755293  0.07740042    -0.27100
N112        N  0.67510005  0.44794037  0.06184625    -0.34900
C113        C  0.67526130  0.47291601  0.03999562     0.01300
C114        C  0.70607572  0.48820648  0.04093499     0.07300
C115        C  0.72347120  0.47202085  0.06541913    -0.05800
H116        H  0.65441509  0.47918094  0.02450212     0.08000
H117        H  0.74875437  0.47694644  0.07321550     0.09200
Cu118      Cu  0.63911403  0.41088112  0.06546795     0.44200
Cu119      Cu  0.71564885  0.41307250  0.11338279     0.42000
Cu120      Cu  0.65905584  0.34219279  0.11638533     0.43900
N121        N  0.61684052  0.36440193  0.06061941    -0.34500
N122        N  0.62563091  0.33833941  0.07830657    -0.28700
C123        C  0.61078028  0.31091173  0.06620117    -0.04800
C124        C  0.59209011  0.32014271  0.03924441     0.07400
C125        C  0.59576693  0.35436697  0.03705503     0.01200
H126        H  0.61417239  0.28597349  0.07567260     0.08900
H127        H  0.58387266  0.37103342  0.02005758     0.07900
N128        N  0.69547920  0.35175685  0.15069511    -0.35900
N129        N  0.71700669  0.37663357  0.14929581    -0.28100
C130        C  0.73952025  0.37295102  0.17350067    -0.03300
C131        C  0.73144686  0.34452706  0.19090870     0.05300
C132        C  0.70340420  0.33185791  0.17584828     0.03400
H133        H  0.76108153  0.38871503  0.17698544     0.08500
H134        H  0.69106031  0.30853780  0.18124398     0.07300
C135        C  0.72683199  0.54978391  0.03317953     0.45700
H136        H  0.72508738  0.55160133  0.06032131    -0.03300
C137        C  0.73072668  0.54598054  0.46946809     0.45700
H138        H  0.73237879  0.54432276  0.44231896    -0.03300
C139        C  0.70295992  0.57335972  0.01519981    -0.17000
C140        C  0.76145559  0.55836646  0.01971179    -0.16800
C141        C  0.71816872  0.51529638  0.01954523    -0.17200
C142        C  0.70458368  0.57119292  0.48152521    -0.17100
C143        C  0.76353110  0.55644967  0.48604247    -0.16700
C144        C  0.72055557  0.51325048  0.48598842    -0.17000
N145        N  0.07159481  0.33217208  0.07388076    -0.27100
N146        N  0.10141651  0.32761462  0.06095819    -0.34900
C147        C  0.10064047  0.30130267  0.04069588     0.01300
C148        C  0.06863343  0.28882925  0.03994228     0.07300
C149        C  0.05086127  0.30858100  0.06181119    -0.05800
H150        H  0.12199423  0.29208497  0.02746636     0.08000
H151        H  0.02468620  0.30650219  0.06774687     0.09200
Cu152      Cu  0.14087944  0.36010945  0.06680757     0.44200
Cu153      Cu  0.06263085  0.37197366  0.10619818     0.42000
Cu154      Cu  0.12848333  0.43837618  0.10582204     0.43900
N155        N  0.17308987  0.39968096  0.06031560    -0.34500
N156        N  0.16824157  0.42972211  0.07264832    -0.28700
C157        C  0.19140059  0.45044635  0.05960125    -0.04800
C158        C  0.21114925  0.43238907  0.03777640     0.07400
C159        C  0.19916274  0.40025302  0.03973362     0.01200
H160        H  0.19325954  0.47677935  0.06489595     0.08900
H161        H  0.20859012  0.37860260  0.02714415     0.07900
N162        N  0.08692740  0.43680536  0.13798925    -0.35900
N163        N  0.06364581  0.41332388  0.13792032    -0.28100
C164        C  0.04121352  0.42011759  0.16168602    -0.03300
C165        C  0.05057993  0.44911913  0.17768742     0.05300
C166        C  0.07965316  0.45894607  0.16191655     0.03400
H167        H  0.01952633  0.40503250  0.16688987     0.08500
H168        H  0.09440176  0.48079851  0.16738053     0.07300
N169        N  0.16815023  0.42746272  0.42804819    -0.27100
N170        N  0.17350221  0.39743338  0.44019305    -0.34900
C171        C  0.19979709  0.39837554  0.46051371     0.01300
C172        C  0.21120873  0.43074596  0.46237750     0.07300
C173        C  0.19104253  0.44851911  0.44086214    -0.05800
H174        H  0.20969239  0.37688767  0.47304837     0.08000
H175        H  0.19241704  0.47488822  0.43560991     0.09200
Cu176      Cu  0.14136915  0.35764490  0.43404985     0.44200
Cu177      Cu  0.12817768  0.43632276  0.39578881     0.42000
Cu178      Cu  0.06067698  0.37275211  0.39976948     0.43900
N179        N  0.10139281  0.32611445  0.44179072    -0.34500
N180        N  0.07074439  0.33229880  0.43161045    -0.28700
C181        C  0.05017688  0.30937271  0.44518306    -0.04800
C182        C  0.06898172  0.28818167  0.46489452     0.07400
C183        C  0.10132127  0.29925421  0.46142855     0.01200
H184        H  0.02349911  0.30853732  0.44156510     0.08900
H185        H  0.12334512  0.28887351  0.47266810     0.07900
N186        N  0.06168322  0.41335406  0.36653127    -0.35900
N187        N  0.08595519  0.43573769  0.36508554    -0.28100
C188        C  0.07913886  0.45758050  0.34081862    -0.03300
C189        C  0.04925120  0.44881780  0.32608394     0.05300
C190        C  0.03893797  0.42064355  0.34312119     0.03400
H191        H  0.09483763  0.47847055  0.33437180     0.08500
H192        H  0.01643691  0.40648369  0.33881718     0.07300
N193        N  0.05768751  0.78758974  0.43297855    -0.27100
N194        N  0.05530033  0.81946011  0.44084573    -0.34900
C195        C  0.02722468  0.82383041  0.45833450     0.01300
C196        C  0.01238442  0.79302820  0.46296940     0.07300
C197        C  0.03192857  0.77080150  0.44595999    -0.05800
H198        H  0.01891503  0.84754240  0.46767660     0.08000
H199        H  0.02855695  0.74411649  0.44438365     0.09200
Cu200      Cu  0.09435488  0.85365774  0.43529692     0.44200
Cu201      Cu  0.09637048  0.76759712  0.40654139     0.42000
Cu202      Cu  0.17180855  0.81293517  0.41595426     0.43900
N203        N  0.14135235  0.87505426  0.44289856    -0.34500
N204        N  0.16933962  0.85829787  0.43854998    -0.28700
C205        C  0.19501398  0.87576666  0.45068116    -0.04800
C206        C  0.18274705  0.90497286  0.46346473     0.07400
C207        C  0.14876665  0.90424303  0.45743241     0.01200
H208        H  0.22057232  0.86722944  0.45123327     0.08900
H209        H  0.13059691  0.92288055  0.46417125     0.07900
N210        N  0.16526692  0.77678118  0.38129637    -0.35900
N211        N  0.13736627  0.75984190  0.37746026    -0.28100
C212        C  0.13925119  0.74199407  0.34966885    -0.03300
C213        C  0.16963352  0.74872808  0.33531615     0.05300
C214        C  0.18559552  0.77060775  0.35602011     0.03400
H215        H  0.11931404  0.72690873  0.33977477     0.08500
H216        H  0.20952597  0.78240286  0.35228022     0.07300
N217        N  0.05159112  0.79787084  0.07684502    -0.27100
N218        N  0.05327300  0.82569786  0.05967169    -0.34900
C219        C  0.02969180  0.82517287  0.03647167     0.01300
C220        C  0.01317193  0.79509057  0.03824729     0.07300
C221        C  0.02702802  0.77870376  0.06469221    -0.05800
H222        H  0.02462944  0.84574568  0.02043909     0.08000
H223        H  0.02011354  0.75447774  0.07409435     0.09200
Cu224      Cu  0.09022308  0.86128322  0.06386204     0.44200
Cu225      Cu  0.08338893  0.78741626  0.11508841     0.42000
Cu226      Cu  0.15664255  0.84297877  0.11614151     0.43900
N227        N  0.13615538  0.88402082  0.05928762    -0.34500
N228        N  0.16189729  0.87605599  0.07774346    -0.28700
C229        C  0.18928700  0.89130914  0.06596841    -0.04800
C230        C  0.18023291  0.90934031  0.03842302     0.07400
C231        C  0.14621376  0.90475680  0.03552820     0.01200
H232        H  0.21407912  0.88863674  0.07603357     0.08900
H233        H  0.12961464  0.91581499  0.01790917     0.07900
N234        N  0.14613309  0.80664171  0.15047590    -0.35900
N235        N  0.12059635  0.78581779  0.14984036    -0.28100
C236        C  0.12463108  0.76278557  0.17348002    -0.03300
C237        C  0.15403049  0.76972527  0.18964695     0.05300
C238        C  0.16679239  0.79771474  0.17465064     0.03400
H239        H  0.10841743  0.74161715  0.17727978     0.08500
H240        H  0.19065810  0.80930801  0.17930915     0.07300
C241        C  0.95040184  0.77382240  0.47010420     0.45700
H242        H  0.94949929  0.77403586  0.44286497    -0.03300
C243        C  0.95196841  0.77334472  0.03398362     0.45700
H244        H  0.95265221  0.77319419  0.06122102    -0.03300
C245        C  0.92561687  0.79798046  0.48609952    -0.17000
C246        C  0.94250299  0.73962178  0.48506997    -0.16800
C247        C  0.98404699  0.78432627  0.48435068    -0.17200
C248        C  0.92658012  0.79803305  0.01984458    -0.17100
C249        C  0.94301799  0.73939584  0.01885469    -0.16700
C250        C  0.98489797  0.78396035  0.01806970    -0.17000
O251        O  0.20782454  0.75062756  0.29165841    -0.72700
O252        O  0.24925673  0.71234446  0.21170572    -0.73700
O253        O  0.19996186  0.75990573  0.22359056    -0.62300
O254        O  0.25717911  0.70429901  0.27967748    -0.70700
O255        O  0.21899863  0.66419704  0.28031387    -0.70300
O256        O  0.16135674  0.72031089  0.22131117    -0.61500
O257        O  0.21163226  0.67174120  0.21124909    -0.74000
O258        O  0.16856954  0.71158205  0.29036615    -0.72800
Cu259      Cu  0.22977461  0.73316799  0.25157426     1.04600
Cu260      Cu  0.18866666  0.69048192  0.25069201     1.04300
C261        C  0.18233079  0.73655859  0.30415024     0.93500
C262        C  0.23719677  0.68592355  0.19900049     0.92600
C263        C  0.17219101  0.74903511  0.21298157     0.84800
C264        C  0.24681797  0.67622910  0.28994259     0.91000
N265        N  0.28989008  0.56080737  0.06751893    -0.27100
N266        N  0.32089740  0.55824551  0.05686801    -0.34900
C267        C  0.32333155  0.53107191  0.03784133     0.01300
C268        C  0.29215862  0.51667802  0.03521637     0.07300
C269        C  0.27169275  0.53570395  0.05493109    -0.05800
H270        H  0.34629912  0.52251808  0.02704780     0.08000
H271        H  0.24536023  0.53201558  0.05923730     0.09200
Cu272      Cu  0.35731849  0.59468216  0.06297307     0.44200
Cu273      Cu  0.27387238  0.59841836  0.09839182     0.42000
Cu274      Cu  0.32826003  0.67017561  0.09864502     0.43900
N275        N  0.38181645  0.64008974  0.05790322    -0.34500
N276        N  0.36951545  0.66829817  0.06928640    -0.28700
C277        C  0.38702563  0.69398945  0.05718759    -0.04800
C278        C  0.41134671  0.68137612  0.03685573     0.07400
C279        C  0.40801537  0.64711028  0.03865225     0.01200
H280        H  0.38136982  0.71996876  0.06153868     0.08900
H281        H  0.42316715  0.62847683  0.02682102     0.07900
N282        N  0.28854372  0.66447367  0.12957899    -0.35900
N283        N  0.26835332  0.63848564  0.12981722    -0.28100
C284        C  0.24626371  0.64221088  0.15433130    -0.03300
C285        C  0.25325238  0.67190166  0.17006549     0.05300
C286        C  0.28009206  0.68533720  0.15378298     0.03400
H287        H  0.22723101  0.62428061  0.16071636     0.08500
H288        H  0.29306476  0.70823372  0.15950177     0.07300
N289        N  0.29751431  0.55322608  0.42326332    -0.27100
N290        N  0.32690497  0.55211366  0.43786787    -0.34900
C291        C  0.32656796  0.52727152  0.45986209     0.01300
C292        C  0.29508458  0.51327146  0.46024490     0.07300
C293        C  0.27758263  0.52965770  0.43607854    -0.05800
H294        H  0.34784733  0.52010080  0.47432101     0.08000
H295        H  0.25192535  0.52553027  0.42905284     0.09200
Cu296      Cu  0.36363179  0.58870156  0.43365929     0.44200
Cu297      Cu  0.28508826  0.58759808  0.38802554     0.42000
Cu298      Cu  0.33671759  0.66109546  0.39121672     0.43900
N299        N  0.38576652  0.63534744  0.43974111    -0.34500
N300        N  0.37377138  0.66251745  0.42587002    -0.28700
C301        C  0.38924364  0.68938445  0.43829155    -0.04800
C302        C  0.41190639  0.67870733  0.46143656     0.07400
C303        C  0.40982258  0.64423888  0.46093304     0.01200
H304        H  0.38380013  0.71487793  0.43156238     0.08900
H305        H  0.42483433  0.62669036  0.47443654     0.07900
N306        N  0.30118744  0.65242671  0.35598080    -0.35900
N307        N  0.28174402  0.62591510  0.35485709    -0.28100
C308        C  0.26006950  0.62924401  0.32995149    -0.03300
C309        C  0.26660256  0.65919934  0.31469750     0.05300
C310        C  0.29276026  0.67320459  0.33173458     0.03400
H311        H  0.24035018  0.61181899  0.32425594     0.08500
H312        H  0.30375814  0.69749832  0.32790154     0.07300
C313        C  0.27307896  0.45421667  0.03137936     0.45700
H314        H  0.27321128  0.45482204  0.05862178    -0.03300
C315        C  0.27306471  0.45237297  0.46750683     0.45700
H316        H  0.27310065  0.45160242  0.44026657    -0.03300
C317        C  0.29852523  0.42965599  0.01683769    -0.17000
C318        C  0.23923198  0.44401403  0.01669089    -0.16800
C319        C  0.28240022  0.48749193  0.01537285    -0.17200
C320        C  0.29845133  0.42859291  0.48308768    -0.17100
C321        C  0.23928278  0.44305198  0.48286700    -0.16700
C322        C  0.28269255  0.48639350  0.48165971    -0.17000
N323        N  0.92856706  0.66772457  0.07320930    -0.27100
N324        N  0.89806398  0.67434307  0.06287727    -0.34900
C325        C  0.89873751  0.70088771  0.04289025     0.01300
C326        C  0.93129687  0.71122823  0.03943341     0.07300
C327        C  0.94963001  0.69007974  0.05951890    -0.05800
H328        H  0.87696192  0.71165351  0.03151575     0.08000
H329        H  0.97628247  0.69056194  0.06337153     0.09200
Cu330      Cu  0.85737730  0.64392682  0.07100999     0.44200
Cu331      Cu  0.93801187  0.62747348  0.10511271     0.42000
Cu332      Cu  0.87043691  0.56464784  0.10862022     0.43900
N333        N  0.82513532  0.60432293  0.06476054    -0.34500
N334        N  0.83056403  0.57417016  0.07659173    -0.28700
C335        C  0.80818778  0.55305818  0.06309074    -0.04800
C336        C  0.78826546  0.57093101  0.04150849     0.07400
C337        C  0.79926692  0.60338764  0.04391820     0.01200
H338        H  0.80724259  0.52654417  0.06768692     0.08900
H339        H  0.78976438  0.62480265  0.03094316     0.07900
N340        N  0.91278462  0.56429040  0.13898344    -0.35900
N341        N  0.93706658  0.58664505  0.13771582    -0.28100
C342        C  0.95997858  0.57902695  0.16080128    -0.03300
C343        C  0.94978807  0.55061996  0.17743011     0.05300
C344        C  0.91977467  0.54204465  0.16283041     0.03400
H345        H  0.98249495  0.59314180  0.16516589     0.08500
H346        H  0.90410052  0.52108289  0.16911035     0.07300
N347        N  0.83527453  0.57030095  0.43186511    -0.27100
N348        N  0.83003394  0.60041930  0.44377167    -0.34900
C349        C  0.80414127  0.59981443  0.46445575     0.01300
C350        C  0.79260241  0.56760794  0.46658596     0.07300
C351        C  0.81241922  0.54946120  0.44504033    -0.05800
H352        H  0.79419850  0.62155618  0.47651906     0.08000
H353        H  0.81048290  0.52316315  0.43960266     0.09200
Cu354      Cu  0.86047576  0.64050896  0.43532423     0.44200
Cu355      Cu  0.87417959  0.56203006  0.39831480     0.42000
Cu356      Cu  0.93794246  0.63044169  0.39487307     0.43900
N357        N  0.89916483  0.67319551  0.44169898    -0.34500
N358        N  0.92897466  0.66944068  0.42853440    -0.28700
C359        C  0.94936868  0.69283541  0.44155500    -0.04800
C360        C  0.93131185  0.71139029  0.46430063     0.07400
C361        C  0.89954292  0.69858077  0.46303305     0.01200
H362        H  0.97546813  0.69565049  0.43559472     0.08900
H363        H  0.87805209  0.70690478  0.47662487     0.07900
N364        N  0.93661680  0.58847778  0.36349434    -0.35900
N365        N  0.91403457  0.56436330  0.36481830    -0.28100
C366        C  0.92097202  0.54162667  0.34139731    -0.03300
C367        C  0.94921872  0.55157329  0.32447973     0.05300
C368        C  0.95837168  0.58140418  0.33919246     0.03400
H369        H  0.90671524  0.51914979  0.33728817     0.08500
H370        H  0.97961235  0.59669694  0.33290991     0.07300
O371        O  0.54437080  0.00539713  0.21405747    -0.72700
O372        O  0.49378535  0.95472023  0.28430466    -0.73700
O373        O  0.49452718  0.95457440  0.21331973    -0.62300
O374        O  0.54341629  0.00560432  0.28498575    -0.70700
O375        O  0.50409660  0.04433368  0.28449157    -0.70300
O376        O  0.45513115  0.99323260  0.21302803    -0.61500
O377        O  0.45439577  0.99340422  0.28401762    -0.74000
O378        O  0.50494859  0.04403703  0.21345769    -0.72800
Cu379      Cu  0.52036435  0.97874816  0.24918101     1.04600
Cu380      Cu  0.47827883  0.02006423  0.24872112     1.04300
C381        C  0.53240477  0.03242039  0.20231510     0.93500
C382        C  0.46648097  0.96639299  0.29569686     0.92600
C383        C  0.46735900  0.96620667  0.20151123     0.84800
C384        C  0.53122741  0.03271669  0.29638003     0.91000
N385        N  0.77937538  0.93454860  0.43607655    -0.27100
N386        N  0.81159859  0.93778071  0.44200733    -0.34900
C387        C  0.81658479  0.96634398  0.45843649     0.01300
C388        C  0.78595452  0.98095622  0.46406613     0.07300
C389        C  0.76297760  0.96055800  0.44906767    -0.05800
H390        H  0.84066964  0.97520844  0.46635103     0.08000
H391        H  0.73622479  0.96375613  0.44857545     0.09200
Cu392      Cu  0.84628049  0.89996897  0.43486256     0.44200
Cu393      Cu  0.75897853  0.89453225  0.41185791     0.42000
Cu394      Cu  0.80776063  0.82065197  0.41894967     0.43900
N395        N  0.86911019  0.85439052  0.44393777    -0.34500
N396        N  0.85336890  0.82565281  0.44088327    -0.28700
C397        C  0.87181797  0.80132535  0.45420138    -0.04800
C398        C  0.90046502  0.81542552  0.46641755     0.07400
C399        C  0.89848912  0.84893801  0.45883599     0.01200
H400        H  0.86438319  0.77547633  0.45583939     0.08900
H401        H  0.91637610  0.86814354  0.46468484     0.07900
N402        N  0.76952283  0.82572944  0.38614064    -0.35900
N403        N  0.75139679  0.85301950  0.38335258    -0.28100
C404        C  0.73321517  0.85119139  0.35580560    -0.03300
C405        C  0.74087545  0.82155253  0.34044327     0.05300
C406        C  0.76366026  0.80583850  0.36039188     0.03400
H407        H  0.71790128  0.87114740  0.34630279     0.08500
H408        H  0.77694630  0.78296388  0.35534021     0.07300
N409        N  0.79558890  0.94802616  0.07878385    -0.27100
N410        N  0.82331058  0.94678105  0.06137460    -0.34900
C411        C  0.82163714  0.96934640  0.03725952     0.01300
C412        C  0.79102018  0.98486693  0.03873491     0.07300
C413        C  0.77538343  0.97141894  0.06589138    -0.05800
H414        H  0.84166764  0.97429271  0.02040106     0.08000
H415        H  0.75099242  0.97778495  0.07525918     0.09200
Cu416      Cu  0.86010640  0.91114502  0.06649182     0.44200
Cu417      Cu  0.78708114  0.91693790  0.11841065     0.42000
Cu418      Cu  0.84502121  0.84595838  0.12228326     0.43900
N419        N  0.88271959  0.86508047  0.06240012    -0.34500
N420        N  0.87607154  0.83993820  0.08213201    -0.28700
C421        C  0.89075337  0.81223817  0.07027436    -0.04800
C422        C  0.90688597  0.82040154  0.04133265     0.07400
C423        C  0.90190397  0.85429094  0.03767188     0.01200
H424        H  0.88902217  0.78781659  0.08133931     0.08900
H425        H  0.91167690  0.87029200  0.01887191     0.07900
N426        N  0.80920468  0.85702445  0.15726920    -0.35900
N427        N  0.78748946  0.88175627  0.15553670    -0.28100
C428        C  0.76460244  0.87795931  0.17937912    -0.03300
C429        C  0.77242301  0.84955713  0.19689725     0.05300
C430        C  0.80093630  0.83715989  0.18237406     0.03400
H431        H  0.74247668  0.89310944  0.18194595     0.08500
H432        H  0.81287489  0.81357785  0.18754962     0.07300
C433        C  0.77123602  0.04652068  0.03123609     0.45700
H434        H  0.77153016  0.04771251  0.05846464    -0.03300
C435        C  0.77079051  0.04422042  0.46737266     0.45700
H436        H  0.77063400  0.04320014  0.44014206    -0.03300
C437        C  0.79728634  0.06922443  0.01515739    -0.17000
C438        C  0.77912476  0.01199955  0.01735737    -0.16800
C439        C  0.73780024  0.05685922  0.01606554    -0.17200
C440        C  0.79739378  0.06780995  0.48144017    -0.17100
C441        C  0.77864064  0.01078900  0.48367113    -0.16700
C442        C  0.73753475  0.05583002  0.48228469    -0.17000
O443        O  0.70707840  0.82663210  0.29341883    -0.72700
O444        O  0.67333875  0.79348512  0.20762176    -0.73700
O445        O  0.66013166  0.77826768  0.27496416    -0.62300
O446        O  0.72149626  0.84086227  0.22608514    -0.70700
O447        O  0.76081385  0.80199735  0.22823932    -0.70300
O448        O  0.69956679  0.73954699  0.27217600    -0.61500
O449        O  0.71400829  0.75594897  0.20641404    -0.74000
O450        O  0.74512911  0.78642663  0.29419643    -0.72800
Cu451      Cu  0.68904119  0.81128376  0.25053204     1.04600
Cu452      Cu  0.73119241  0.76970322  0.25022830     1.04300
C453        C  0.73057242  0.81107188  0.30781437     0.93500
C454        C  0.68895374  0.77010857  0.19310168     0.92600
C455        C  0.67108352  0.74919301  0.28200491     0.84800
C456        C  0.75070101  0.83046145  0.21875609     0.91000
N457        N  0.56629567  0.72197755  0.06314198    -0.27100
N458        N  0.56330233  0.68962668  0.05774497    -0.34900
C459        C  0.53469693  0.68401937  0.04164791     0.01300
C460        C  0.51967667  0.71430061  0.03562018     0.07300
C461        C  0.53998545  0.73783705  0.04999583    -0.05800
H462        H  0.52619636  0.65973294  0.03397836     0.08000
H463        H  0.53657314  0.76456491  0.04983841     0.09200
Cu464      Cu  0.60116722  0.65508691  0.06444354     0.44200
Cu465      Cu  0.60629732  0.74293458  0.08730378     0.42000
Cu466      Cu  0.67952788  0.69125840  0.08307459     0.43900
N467        N  0.64614195  0.63145990  0.05504149    -0.34500
N468        N  0.67508315  0.64640159  0.05946927    -0.28700
C469        C  0.69943338  0.62759004  0.04665219    -0.04800
C470        C  0.68507336  0.59957589  0.03321405     0.07400
C471        C  0.65135568  0.60229130  0.03968005     0.01200
H472        H  0.72556462  0.63415380  0.04655697     0.08900
H473        H  0.63195185  0.58478302  0.03341947     0.07900
N474        N  0.67385873  0.72981614  0.11552612    -0.35900
N475        N  0.64721858  0.74905564  0.11726418    -0.28100
C476        C  0.64915798  0.76776049  0.14452057    -0.03300
C477        C  0.67819091  0.75932767  0.16068248     0.05300
C478        C  0.69335297  0.73548568  0.14158269     0.03400
H479        H  0.62974294  0.78426593  0.15313731     0.08500
H480        H  0.71571002  0.72160215  0.14728633     0.07300
N481        N  0.55561384  0.70288424  0.42188184    -0.27100
N482        N  0.55695980  0.67527730  0.43942701    -0.34900
C483        C  0.53395059  0.67692162  0.46318580     0.01300
C484        C  0.51813116  0.70743503  0.46115031     0.07300
C485        C  0.53185078  0.72294303  0.43416530    -0.05800
H486        H  0.52878657  0.65691875  0.48001204     0.08000
H487        H  0.52530510  0.74711576  0.42438278     0.09200
Cu488      Cu  0.59294906  0.63863058  0.43386884     0.44200
Cu489      Cu  0.58667861  0.71164152  0.38276761     0.42000
Cu490      Cu  0.65922840  0.65532283  0.37941694     0.43900
N491        N  0.63880385  0.61513108  0.43723175    -0.34500
N492        N  0.66455362  0.62268524  0.41857139    -0.28700
C493        C  0.69196428  0.60757225  0.43072317    -0.04800
C494        C  0.68285874  0.59009156  0.45865894     0.07400
C495        C  0.64885562  0.59478988  0.46133262     0.01200
H496        H  0.71681626  0.61021092  0.42081225     0.08900
H497        H  0.63237428  0.58439004  0.47940562     0.07900
N498        N  0.64689236  0.69066398  0.34421297    -0.35900
N499        N  0.62155330  0.71166906  0.34583489    -0.28100
C500        C  0.62436950  0.73435118  0.32172145    -0.03300
C501        C  0.65276124  0.72712192  0.30404544     0.05300
C502        C  0.66618224  0.69917396  0.31877479     0.03400
H503        H  0.60853875  0.75598775  0.31907666     0.08500
H504        H  0.69005190  0.68787973  0.31348048     0.07300
C505        C  0.45622498  0.72831252  0.03004427     0.45700
H506        H  0.45623609  0.72899667  0.05728924    -0.03300
C507        C  0.45609597  0.72661622  0.46617712     0.45700
H508        H  0.45595325  0.72588247  0.43893390    -0.03300
C509        C  0.49030706  0.72067980  0.01504940    -0.17000
C510        C  0.43338738  0.70126562  0.01562610    -0.16800
C511        C  0.44472496  0.76105513  0.01425874    -0.17200
C512        C  0.49018737  0.71937000  0.48139350    -0.17100
C513        C  0.43329569  0.70037742  0.48186275    -0.16700
C514        C  0.44475236  0.76020812  0.48051237    -0.17000
N515        N  0.66847364  0.07232628  0.07282722    -0.27100
N516        N  0.67380421  0.10247119  0.06094303    -0.34900
C517        C  0.69912333  0.10151720  0.03947406     0.01300
C518        C  0.71005181  0.06908011  0.03685605     0.07300
C519        C  0.69060665  0.05123052  0.05891686    -0.05800
H520        H  0.70868933  0.12302494  0.02670250     0.08000
H521        H  0.69196585  0.02479583  0.06384659     0.09200
Cu522      Cu  0.64288556  0.14258273  0.06906262     0.44200
Cu523      Cu  0.62923473  0.06302380  0.10584721     0.42000
Cu524      Cu  0.56259918  0.12708562  0.10364721     0.43900
N525        N  0.60275058  0.17357936  0.06132801    -0.34500
N526        N  0.57229798  0.16741425  0.07202544    -0.28700
C527        C  0.55138079  0.18994541  0.05844702    -0.04800
C528        C  0.56975052  0.21066387  0.03799552     0.07400
C529        C  0.60219413  0.19988457  0.04104210     0.01200
H530        H  0.52476492  0.19071956  0.06248030     0.08900
H531        H  0.62391911  0.21007708  0.02908472     0.07900
N532        N  0.56317824  0.08592679  0.13573554    -0.35900
N533        N  0.58710261  0.06316686  0.13668322    -0.28100
C534        C  0.57991292  0.04094509  0.16050990    -0.03300
C535        C  0.55017048  0.04999679  0.17539253     0.05300
C536        C  0.54031682  0.07859698  0.15893312     0.03400
H537        H  0.59524970  0.01967146  0.16657887     0.08500
H538        H  0.51808763  0.09308488  0.16352439     0.07300
N539        N  0.57139896  0.16817700  0.42739290    -0.27100
N540        N  0.60165942  0.17259776  0.43939486    -0.34900
C541        C  0.60156460  0.19817212  0.46057807     0.01300
C542        C  0.56961295  0.21044927  0.46279803     0.07300
C543        C  0.55110243  0.19133464  0.44090801    -0.05800
H544        H  0.62333427  0.20698576  0.47346447     0.08000
H545        H  0.52475063  0.19361483  0.43586072     0.09200
Cu546      Cu  0.64103549  0.14082314  0.43149528     0.44200
Cu547      Cu  0.56104071  0.12876546  0.39457168     0.42000
Cu548      Cu  0.62618549  0.06221669  0.39497630     0.43900
N549        N  0.67236495  0.10095075  0.43861412    -0.34500
N550        N  0.66662160  0.07079552  0.42697807    -0.28700
C551        C  0.68931531  0.04975538  0.44018215    -0.04800
C552        C  0.70962625  0.06776750  0.46144114     0.07400
C553        C  0.69846010  0.10013433  0.45914620     0.01200
H554        H  0.69040558  0.02327004  0.43544914     0.08900
H555        H  0.70831979  0.12167638  0.47164415     0.07900
N556        N  0.58448961  0.06329855  0.36337267    -0.35900
N557        N  0.56125377  0.08681220  0.36316427    -0.28100
C558        C  0.53888891  0.07962469  0.33938206    -0.03300
C559        C  0.54840066  0.05038330  0.32373149     0.05300
C560        C  0.57736046  0.04082533  0.33974491     0.03400
H561        H  0.51728925  0.09468509  0.33376881     0.08500
H562        H  0.59229242  0.01904359  0.33450611     0.07300
N563        N  0.21579034  0.06206593  0.43375519    -0.27100
N564        N  0.18383461  0.05830032  0.44075837    -0.34900
C565        C  0.17989441  0.02937875  0.45689191     0.01300
C566        C  0.21091601  0.01507015  0.46129180     0.07300
C567        C  0.23302955  0.03614416  0.44590965    -0.05800
H568        H  0.15631458  0.02023758  0.46588469     0.08000
H569        H  0.25983663  0.03360872  0.44486717     0.09200
Cu570      Cu  0.14832226  0.09603335  0.43592648     0.44200
Cu571      Cu  0.23483696  0.10250677  0.40891358     0.42000
Cu572      Cu  0.18374895  0.17487399  0.41323812     0.43900
N573        N  0.12553095  0.14187447  0.44506660    -0.34500
N574        N  0.14062025  0.17054643  0.43947555    -0.28700
C575        C  0.12306204  0.19540112  0.45300357    -0.04800
C576        C  0.09562008  0.18182597  0.46808093     0.07400
C577        C  0.09721836  0.14795614  0.46167379     0.01200
H578        H  0.13016321  0.22138749  0.45247865     0.08900
H579        H  0.07947100  0.12905262  0.46863029     0.07900
N580        N  0.22154268  0.16953630  0.38008428    -0.35900
N581        N  0.24089712  0.14300925  0.37850946    -0.28100
C582        C  0.26031732  0.14532513  0.35179710    -0.03300
C583        C  0.25226509  0.17454465  0.33580971     0.05300
C584        C  0.22777332  0.18937551  0.35441293     0.03400
H585        H  0.27755000  0.12632367  0.34369068     0.08500
H586        H  0.21438902  0.21210048  0.34896808     0.07300
N587        N  0.20558780  0.05373911  0.07472777    -0.27100
N588        N  0.17705176  0.05410052  0.05856559    -0.34900
C589        C  0.17784957  0.03055838  0.03527776     0.01300
C590        C  0.20866185  0.01528291  0.03603592     0.07300
C591        C  0.22538522  0.02999495  0.06187786    -0.05800
H592        H  0.15697967  0.02451670  0.01979208     0.08000
H593        H  0.25010654  0.02396907  0.07061314     0.09200
Cu594      Cu  0.13930998  0.08873417  0.06531980     0.44200
Cu595      Cu  0.21549451  0.08553599  0.11346179     0.42000
Cu596      Cu  0.15453632  0.15365862  0.12090958     0.43900
N597        N  0.11405942  0.13375374  0.06347886    -0.34500
N598        N  0.12123717  0.15904757  0.08282052    -0.28700
C599        C  0.10591577  0.18661132  0.07149514    -0.04800
C600        C  0.08863369  0.17821696  0.04329484     0.07400
C601        C  0.09351763  0.14426850  0.03972046     0.01200
H602        H  0.10849049  0.21120088  0.08204269     0.08900
H603        H  0.08313975  0.12809697  0.02146841     0.07900
N604        N  0.19252097  0.14418325  0.15363346    -0.35900
N605        N  0.21534140  0.12059777  0.15069839    -0.28100
C606        C  0.23891399  0.12529040  0.17371839    -0.03300
C607        C  0.23032102  0.15311784  0.19179442     0.05300
C608        C  0.20075117  0.16423356  0.17856899     0.03400
H609        H  0.26168244  0.11100586  0.17556172     0.08500
H610        H  0.18761120  0.18690564  0.18475738     0.07300
C611        C  0.22781439  0.95216261  0.46750118     0.45700
H612        H  0.22753155  0.95155759  0.44025850    -0.03300
C613        C  0.22838315  0.95325537  0.03141282     0.45700
H614        H  0.22857003  0.95369657  0.05865720    -0.03300
C615        C  0.20204542  0.92881243  0.48327615    -0.17000
C616        C  0.26148205  0.94193699  0.48244932    -0.16800
C617        C  0.21951088  0.98632761  0.48211778    -0.17200
C618        C  0.20232052  0.92937218  0.01703896    -0.22700
C619        C  0.26169896  0.94243153  0.01621471    -0.16700
C620        C  0.21976596  0.98689958  0.01582155    -0.17000
O621        O  0.32901247  0.20989905  0.20937686    -0.72700
O622        O  0.28986080  0.17188662  0.29122658    -0.73700
O623        O  0.27997105  0.16143526  0.22270432    -0.62300
O624        O  0.33842184  0.22049215  0.27775862    -0.70700
O625        O  0.29940961  0.25971569  0.27583177    -0.70300
O626        O  0.24078299  0.20049227  0.22395953    -0.61500
O627        O  0.25170619  0.21200136  0.29136313    -0.74000
O628        O  0.28890473  0.24804839  0.20834044    -0.72800
Cu629      Cu  0.31075066  0.18948106  0.25025524     1.04600
Cu630      Cu  0.26887481  0.23139173  0.24981922     1.04300
C631        C  0.31465181  0.23458679  0.19568476     0.93500
C632        C  0.26517844  0.18657673  0.30461125     0.92600
C633        C  0.25124416  0.17217005  0.21431175     0.84800
C634        C  0.32748740  0.24916039  0.28605624     0.91000
N635        N  0.44777949  0.29391896  0.42419140    -0.27100
N636        N  0.44687906  0.32243982  0.44033506    -0.34900
C637        C  0.47118041  0.32266377  0.46279534     0.01300
C638        C  0.48739738  0.29242220  0.46177490     0.07300
C639        C  0.47256554  0.27500407  0.43643485    -0.05800
H640        H  0.47664466  0.34365413  0.47823494     0.08000
H641        H  0.47881030  0.25021994  0.42803206     0.09200
Cu642      Cu  0.40970044  0.35792325  0.43667997     0.44200
Cu643      Cu  0.41470664  0.28284027  0.38689746     0.42000
Cu644      Cu  0.34253199  0.33983059  0.38563425     0.43900
N645        N  0.36389213  0.38093328  0.44197580    -0.34500
N646        N  0.33788769  0.37288366  0.42393606    -0.28700
C647        C  0.31077734  0.38867590  0.43557151    -0.04800
C648        C  0.32021814  0.40722260  0.46263235     0.07400
C649        C  0.35425815  0.40235711  0.46533997     0.01200
H650        H  0.28594476  0.38630404  0.42553130     0.08900
H651        H  0.37122325  0.41394421  0.48225385     0.07900
N652        N  0.35319680  0.30467560  0.35036427    -0.35900
N653        N  0.37826713  0.28329875  0.35104080    -0.28100
C654        C  0.37451195  0.26137549  0.32636684    -0.03300
C655        C  0.34581466  0.26959085  0.30950466     0.05300
C656        C  0.33313119  0.29720104  0.32521404     0.03400
H657        H  0.39022055  0.23985531  0.32242716     0.08500
H658        H  0.30953177  0.30929576  0.32048215     0.07300
N659        N  0.44008387  0.28650899  0.06683566    -0.27100
N660        N  0.44309270  0.31821337  0.05847937    -0.34900
C661        C  0.47116612  0.32174676  0.04085411     0.01300
C662        C  0.48539978  0.29062796  0.03670243     0.07300
C663        C  0.46550949  0.26902396  0.05407230    -0.05800
H664        H  0.48009945  0.34519538  0.03142197     0.08000
H665        H  0.46865781  0.24237111  0.05642726     0.09200
Cu666      Cu  0.40557955  0.35397375  0.06453028     0.44200
Cu667      Cu  0.40159919  0.26764438  0.09441714     0.42000
Cu668      Cu  0.32822315  0.31609094  0.08754102     0.43900
N669        N  0.35911413  0.37685001  0.05833004    -0.34500
N670        N  0.33092595  0.36090952  0.06405470    -0.28700
C671        C  0.30528350  0.37843067  0.05198027    -0.04800
C672        C  0.31775256  0.40686663  0.03783974     0.07400
C673        C  0.35187757  0.40567978  0.04304459     0.01200
H674        H  0.27961130  0.37023074  0.05209126     0.08900
H675        H  0.37023010  0.42362341  0.03508444     0.07900
N676        N  0.33341521  0.27845072  0.12082135    -0.35900
N677        N  0.36063422  0.26027988  0.12373907    -0.28100
C678        C  0.35787847  0.24084975  0.15040338    -0.03300
C679        C  0.32755490  0.24765846  0.16491148     0.05300
C680        C  0.31263943  0.27146256  0.14554639     0.03400
H681        H  0.37718408  0.22446841  0.15947170     0.08500
H682        H  0.28916121  0.28393324  0.14988413     0.07300
C683        C  0.54785267  0.27234214  0.03234969     0.45700
H684        H  0.54727786  0.27227125  0.05959308    -0.03300
C685        C  0.54915652  0.27248952  0.46845023     0.45700
H686        H  0.54990991  0.27266008  0.44120835    -0.03300
C687        C  0.57216757  0.29793419  0.01791941    -0.17000
C688        C  0.55802236  0.23867862  0.01730564    -0.16800
C689        C  0.51449714  0.28156604  0.01658889    -0.17200
C690        C  0.57303255  0.29778843  0.48418209    -0.17100
C691        C  0.55846846  0.23872908  0.48353570    -0.16700
C692        C  0.51514815  0.28159086  0.48287010    -0.17000
N693        N  0.33321011  0.92744086  0.07031476    -0.27100
N694        N  0.32697715  0.89707979  0.05937128    -0.34900
C695        C  0.30033546  0.89783271  0.03951373     0.01300
C696        C  0.28960290  0.93032752  0.03681329     0.07300
C697        C  0.31055840  0.94849323  0.05717567    -0.05800
H698        H  0.28992029  0.87620440  0.02758690     0.08000
H699        H  0.30989718  0.97508011  0.06140911     0.09200
Cu700      Cu  0.35847006  0.85692759  0.06566785     0.44200
Cu701      Cu  0.37354912  0.93710929  0.10179593     0.42000
Cu702      Cu  0.43843953  0.87193818  0.10155480     0.43900
N703        N  0.39895922  0.82627570  0.05751615    -0.34500
N704        N  0.42920476  0.83227625  0.06888017    -0.28700
C705        C  0.45036189  0.80985917  0.05547904    -0.04800
C706        C  0.43245012  0.78935703  0.03439965     0.07400
C707        C  0.39991939  0.80013097  0.03699164     0.01200
H708        H  0.47685022  0.80887473  0.06023168     0.08900
H709        H  0.37832877  0.78978503  0.02494260     0.07900
N710        N  0.43793244  0.91298848  0.13390293    -0.35900
N711        N  0.41463800  0.93639281  0.13385159    -0.28100
C712        C  0.42141853  0.95851264  0.15788748    -0.03300
C713        C  0.45025797  0.94875675  0.17401443     0.05300
C714        C  0.46001017  0.91980058  0.15801873     0.03400
H715        H  0.40639428  0.98019558  0.16327324     0.08500
H716        H  0.48164228  0.90475220  0.16353243     0.07300
N717        N  0.42967994  0.83142571  0.42614428    -0.27100
N718        N  0.39948496  0.82566009  0.43771966    -0.34900
C719        C  0.40020835  0.79895715  0.45745355     0.01300
C720        C  0.43252462  0.78759276  0.45934585     0.07300
C721        C  0.45063559  0.80835665  0.43873255    -0.05800
H722        H  0.37871529  0.78904017  0.46998604     0.08000
H723        H  0.47715946  0.80743302  0.43416152     0.09200
Cu724      Cu  0.35968901  0.85768327  0.43228194     0.44200
Cu725      Cu  0.43898575  0.87198587  0.39491334     0.42000
Cu726      Cu  0.37255322  0.93682261  0.39520191     0.43900
N727        N  0.32775253  0.89727515  0.43963067    -0.34500
N728        N  0.33276894  0.92740768  0.42760044    -0.28700
C729        C  0.30956615  0.94810557  0.44041267    -0.04800
C730        C  0.28954556  0.92997809  0.46177240     0.07400
C731        C  0.30151309  0.89781337  0.46002383     0.01200
H732        H  0.30787002  0.97447645  0.43526012     0.08900
H733        H  0.29202589  0.87620967  0.47268486     0.07900
N734        N  0.41373004  0.93624236  0.36309221    -0.35900
N735        N  0.43739682  0.91318898  0.36309878    -0.28100
C736        C  0.45938845  0.92021698  0.33904376    -0.03300
C737        C  0.44925098  0.94892935  0.32298609     0.05300
C738        C  0.42025351  0.95837673  0.33899946     0.03400
H739        H  0.48125556  0.90546921  0.33363460     0.08500
H740        H  0.40499559  0.97987743  0.33355183     0.07300
O741        O  0.00539426  0.45488464  0.71606268    -0.72700
O742        O  0.95487987  0.50604700  0.78664766    -0.73700
O743        O  0.95529702  0.50574031  0.71585543    -0.62300
O744        O  0.00460631  0.45488362  0.78720577    -0.70700
O745        O  0.04397598  0.49356156  0.78731071    -0.70300
O746        O  0.99475919  0.54434352  0.71576375    -0.61500
O747        O  0.99423642  0.54475718  0.78646803    -0.74000
O748        O  0.04468968  0.49364541  0.71641574    -0.72800
Cu749      Cu  0.97868977  0.47903446  0.75143090     1.04600
Cu750      Cu  0.02076170  0.52036146  0.75151520     1.04300
C751        C  0.03278994  0.46656435  0.70475941     0.93500
C752        C  0.96682191  0.53335885  0.79784813     0.92600
C753        C  0.96738463  0.53281850  0.70433660     0.84800
C754        C  0.03185618  0.46647396  0.79884759     0.91000
N755        N  0.94598642  0.20338804  0.92708507    -0.27100
N756        N  0.94652084  0.17430269  0.94230085    -0.34900
C757        C  0.97135001  0.17450215  0.96431768     0.01300
C758        C  0.98625587  0.20553539  0.96395339     0.07300
C759        C  0.97011640  0.22299725  0.93951031    -0.05800
H760        H  0.97800878  0.15337788  0.97923979     0.08000
H761        H  0.97502917  0.24831316  0.93182616     0.09200
Cu762      Cu  0.91024252  0.13745805  0.93758548     0.44200
Cu763      Cu  0.91242209  0.21491016  0.89034768     0.42000
Cu764      Cu  0.84240791  0.15754047  0.88607167     0.43900
N765        N  0.86432927  0.11341484  0.94040355    -0.34500
N766        N  0.83843233  0.12241402  0.92256568    -0.28700
C767        C  0.81101437  0.10671540  0.93360119    -0.04800
C768        C  0.82003721  0.08715316  0.96000265     0.07400
C769        C  0.85418138  0.09127772  0.96294824     0.01200
H770        H  0.78613050  0.11047588  0.92410861     0.08900
H771        H  0.87065591  0.07930748  0.98012723     0.07900
N772        N  0.85225166  0.19395302  0.85187280    -0.35900
N773        N  0.87699809  0.21559993  0.85354066    -0.28100
C774        C  0.87371423  0.23783472  0.82905132    -0.03300
C775        C  0.84561858  0.22950709  0.81122738     0.05300
C776        C  0.83278248  0.20156236  0.82630578     0.03400
H777        H  0.88937668  0.25949753  0.82575549     0.08500
H778        H  0.80958800  0.18910082  0.82063531     0.07300
N779        N  0.93688275  0.21467947  0.56717235    -0.27100
N780        N  0.93967478  0.18293590  0.55895188    -0.34900
C781        C  0.96808919  0.17890873  0.54206382     0.01300
C782        C  0.98301664  0.20972392  0.53849674     0.07300
C783        C  0.96300072  0.23172046  0.55525103    -0.05800
H784        H  0.97674208  0.15532684  0.53266664     0.08000
H785        H  0.96644392  0.25834472  0.55755262     0.09200
Cu786      Cu  0.90175419  0.14783030  0.56415378     0.44200
Cu787      Cu  0.89742252  0.23384362  0.59293422     0.42000
Cu788      Cu  0.82356203  0.18438988  0.58596030     0.43900
N789        N  0.85596318  0.12477954  0.55603488    -0.34500
N790        N  0.82733463  0.14005383  0.56136739    -0.28700
C791        C  0.80237949  0.12187414  0.54878770    -0.04800
C792        C  0.81589735  0.09383644  0.53465701     0.07400
C793        C  0.84982538  0.09589951  0.54044475     0.01200
H794        H  0.77640700  0.12905494  0.54905459     0.08900
H795        H  0.86877354  0.07817583  0.53346143     0.07900
N796        N  0.82931608  0.22178273  0.61969275    -0.35900
N797        N  0.85641406  0.24024360  0.62220307    -0.28100
C798        C  0.85438247  0.25895686  0.64937048    -0.03300
C799        C  0.82478116  0.25136508  0.66477818     0.05300
C800        C  0.80934138  0.22795396  0.64530406     0.03400
H801        H  0.87388775  0.27521991  0.65824322     0.08500
H802        H  0.78619185  0.21508894  0.65019358     0.07300
C803        C  0.04793853  0.22605174  0.97112820     0.45700
H804        H  0.04906713  0.22542916  0.94390665    -0.03300
C805        C  0.04572079  0.22725971  0.53499489     0.45700
H806        H  0.04466895  0.22777936  0.56221789    -0.03300
C807        C  0.07119249  0.20064810  0.98758232    -0.17000
C808        C  0.05751302  0.26001243  0.98582837    -0.16800
C809        C  0.01363050  0.21740198  0.98514681    -0.17200
C810        C  0.06984540  0.20096392  0.52135591    -0.17100
C811        C  0.05666866  0.26055706  0.51959680    -0.16700
C812        C  0.01247724  0.21825558  0.51881489    -0.17000
O813        O  0.79201096  0.32814849  0.79159193    -0.72700
O814        O  0.82845255  0.28805271  0.70977672    -0.73700
O815        O  0.78065230  0.33727308  0.72289399    -0.62300
O816        O  0.83913817  0.27823000  0.77842283    -0.70700
O817        O  0.79954996  0.23957394  0.77722025    -0.70300
O818        O  0.74092423  0.29883853  0.72556277    -0.61500
O819        O  0.78769608  0.25057009  0.70962141    -0.74000
O820        O  0.75339630  0.28850615  0.79317625    -0.72800
Cu821      Cu  0.81153340  0.30933778  0.75062397     1.04600
Cu822      Cu  0.76904228  0.26807669  0.75143915     1.04300
C823        C  0.76762571  0.31386867  0.80583181     0.93500
C824        C  0.81319433  0.26380679  0.69627115     0.92600
C825        C  0.75181334  0.32655116  0.71477679     0.84800
C826        C  0.82777811  0.24987146  0.78727240     0.91000
N827        N  0.72065527  0.43708512  0.93780391    -0.27100
N828        N  0.68866178  0.43913753  0.94533582    -0.34900
C829        C  0.68349976  0.46724014  0.96239659     0.01300
C830        C  0.71373168  0.48299394  0.96674032     0.07300
C831        C  0.73669875  0.46361663  0.95034026    -0.05800
H832        H  0.65943135  0.47530605  0.97107009     0.08000
H833        H  0.76321544  0.46799892  0.94838569     0.09200
Cu834      Cu  0.65379299  0.40148561  0.93815256     0.44200
Cu835      Cu  0.74090235  0.39836679  0.91106576     0.42000
Cu836      Cu  0.68985419  0.32454793  0.91637775     0.43900
N837        N  0.62946939  0.35620665  0.94452603    -0.34500
N838        N  0.64453859  0.32754241  0.93903794    -0.28700
C839        C  0.62578020  0.30254791  0.95066755    -0.04800
C840        C  0.59755518  0.31614776  0.96438230     0.07400
C841        C  0.60018251  0.35015753  0.95935841     0.01200
H842        H  0.63287624  0.27655397  0.95045064     0.08900
H843        H  0.58273447  0.36920481  0.96667636     0.07900
N844        N  0.72726047  0.33087463  0.88294829    -0.35900
N845        N  0.74622396  0.35766040  0.88058600    -0.28100
C846        C  0.76455359  0.35544727  0.85308539    -0.03300
C847        C  0.75607048  0.32610588  0.83746044     0.05300
C848        C  0.73263056  0.31108222  0.85708735     0.03400
H849        H  0.78122696  0.37459690  0.84422064     0.08500
H850        H  0.71918863  0.28826321  0.85217760     0.07300
N851        N  0.70400450  0.44755287  0.57740039    -0.27100
N852        N  0.67510007  0.44794035  0.56184628    -0.34900
C853        C  0.67526136  0.47291601  0.53999569     0.01300
C854        C  0.70607578  0.48820644  0.54093498     0.07300
C855        C  0.72347131  0.47202079  0.56541912    -0.05800
H856        H  0.65441510  0.47918100  0.52450215     0.08000
H857        H  0.74875435  0.47694635  0.57321548     0.09200
Cu858      Cu  0.63911404  0.41088104  0.56546809     0.44200
Cu859      Cu  0.71564881  0.41307248  0.61338277     0.42000
Cu860      Cu  0.65905585  0.34219261  0.61638530     0.43900
N861        N  0.61684052  0.36440190  0.56061952    -0.34500
N862        N  0.62563090  0.33833936  0.57830661    -0.28700
C863        C  0.61078030  0.31091167  0.56620117    -0.04800
C864        C  0.59209015  0.32014273  0.53924440     0.07400
C865        C  0.59576696  0.35436700  0.53705508     0.01200
H866        H  0.61417238  0.28597352  0.57567253     0.08900
H867        H  0.58387273  0.37103346  0.52005768     0.07900
N868        N  0.69547923  0.35175675  0.65069511    -0.35900
N869        N  0.71700665  0.37663352  0.64929579    -0.28100
C870        C  0.73952028  0.37295104  0.67350063    -0.03300
C871        C  0.73144694  0.34452704  0.69090868     0.05300
C872        C  0.70340429  0.33185785  0.67584830     0.03400
H873        H  0.76108142  0.38871500  0.67698536     0.08500
H874        H  0.69106043  0.30853769  0.68124409     0.07300
C875        C  0.72683195  0.54978392  0.53317953     0.45700
H876        H  0.72508734  0.55160135  0.56032134    -0.03300
C877        C  0.73072670  0.54598048  0.96946806     0.45700
H878        H  0.73237879  0.54432268  0.94231904    -0.03300
C879        C  0.70295983  0.57335971  0.51519983    -0.17000
C880        C  0.76145554  0.55836654  0.51971181    -0.16800
C881        C  0.71816875  0.51529637  0.51954522    -0.17200
C882        C  0.70458372  0.57119289  0.98152520    -0.17100
C883        C  0.76353115  0.55644958  0.98604247    -0.16700
C884        C  0.72055553  0.51325047  0.98598847    -0.17000
N885        N  0.07159477  0.33217197  0.57388068    -0.27100
N886        N  0.10141649  0.32761450  0.56095814    -0.34900
C887        C  0.10064041  0.30130257  0.54069581     0.01300
C888        C  0.06863336  0.28882921  0.53994216     0.07300
C889        C  0.05086119  0.30858096  0.56181105    -0.05800
H890        H  0.12199420  0.29208479  0.52746629     0.08000
H891        H  0.02468612  0.30650219  0.56774670     0.09200
Cu892      Cu  0.14087936  0.36010943  0.56680768     0.44200
Cu893      Cu  0.06263080  0.37197353  0.60619812     0.42000
Cu894      Cu  0.12848332  0.43837620  0.60582213     0.43900
N895        N  0.17308981  0.39968092  0.56031560    -0.34500
N896        N  0.16824154  0.42972206  0.57264836    -0.28700
C897        C  0.19140052  0.45044626  0.55960125    -0.04800
C898        C  0.21114919  0.43238905  0.53777639     0.07400
C899        C  0.19916267  0.40025297  0.53973355     0.01200
H900        H  0.19325939  0.47677943  0.56489597     0.08900
H901        H  0.20859001  0.37860268  0.52714412     0.07900
N902        N  0.08692736  0.43680525  0.63798923    -0.35900
N903        N  0.06364584  0.41332381  0.63792031    -0.28100
C904        C  0.04121351  0.42011750  0.66168605    -0.03300
C905        C  0.05057992  0.44911904  0.67768741     0.05300
C906        C  0.07965319  0.45894608  0.66191656     0.03400
H907        H  0.01952643  0.40503247  0.66688991     0.08500
H908        H  0.09440162  0.48079821  0.66738046     0.07300
N909        N  0.16815023  0.42746281  0.92804821    -0.27100
N910        N  0.17350223  0.39743344  0.94019306    -0.34900
C911        C  0.19979718  0.39837558  0.96051363     0.01300
C912        C  0.21120882  0.43074601  0.96237742     0.07300
C913        C  0.19104260  0.44851915  0.94086210    -0.05800
H914        H  0.20969245  0.37688770  0.97304835     0.08000
H915        H  0.19241712  0.47488832  0.93560987     0.09200
Cu916      Cu  0.14136910  0.35764499  0.93404996     0.44200
Cu917      Cu  0.12817768  0.43632282  0.89578877     0.42000
Cu918      Cu  0.06067694  0.37275211  0.89976943     0.43900
N919        N  0.10139280  0.32611447  0.94179067    -0.34500
N920        N  0.07074434  0.33229881  0.93161046    -0.28700
C921        C  0.05017690  0.30937271  0.94518316    -0.04800
C922        C  0.06898182  0.28818167  0.96489456     0.07400
C923        C  0.10132133  0.29925425  0.96142849     0.01200
H924        H  0.02349912  0.30853728  0.94156531     0.08900
H925        H  0.12334530  0.28887362  0.97266808     0.07900
N926        N  0.06168329  0.41335406  0.86653124    -0.35900
N927        N  0.08595522  0.43573769  0.86508552    -0.28100
C928        C  0.07913888  0.45758058  0.84081861    -0.03300
C929        C  0.04925122  0.44881779  0.82608393     0.05300
C930        C  0.03893800  0.42064354  0.84312117     0.03400
H931        H  0.09483752  0.47847053  0.83437182     0.08500
H932        H  0.01643700  0.40648370  0.83881718     0.07300
N933        N  0.05768758  0.78758972  0.93297857    -0.27100
N934        N  0.05530039  0.81946009  0.94084578    -0.34900
C935        C  0.02722473  0.82383039  0.95833447     0.01300
C936        C  0.01238441  0.79302825  0.96296934     0.07300
C937        C  0.03192860  0.77080148  0.94596000    -0.05800
H938        H  0.01891507  0.84754253  0.96767663     0.08000
H939        H  0.02855699  0.74411659  0.94438372     0.09200
Cu940      Cu  0.09435485  0.85365778  0.93529705     0.44200
Cu941      Cu  0.09637059  0.76759717  0.90654135     0.42000
Cu942      Cu  0.17180871  0.81293508  0.91595421     0.43900
N943        N  0.14135235  0.87505424  0.94289859    -0.34500
N944        N  0.16933962  0.85829785  0.93854995    -0.28700
C945        C  0.19501397  0.87576657  0.95068126    -0.04800
C946        C  0.18274704  0.90497278  0.96346486     0.07400
C947        C  0.14876666  0.90424295  0.95743251     0.01200
H948        H  0.22057225  0.86722933  0.95123344     0.08900
H949        H  0.13059689  0.92288055  0.96417137     0.07900
N950        N  0.16526698  0.77678114  0.88129634    -0.35900
N951        N  0.13736635  0.75984183  0.87746028    -0.28100
C952        C  0.13925121  0.74199409  0.84966883    -0.03300
C953        C  0.16963351  0.74872812  0.83531609     0.05300
C954        C  0.18559553  0.77060781  0.85602002     0.03400
H955        H  0.11931395  0.72690878  0.83977473     0.08500
H956        H  0.20952591  0.78240294  0.85228012     0.07300
N957        N  0.05159115  0.79787093  0.57684501    -0.27100
N958        N  0.05327303  0.82569793  0.55967168    -0.34900
C959        C  0.02969171  0.82517303  0.53647170     0.01300
C960        C  0.01317183  0.79509069  0.53824740     0.07300
C961        C  0.02702797  0.77870389  0.56469227    -0.05800
H962        H  0.02462938  0.84574569  0.52043925     0.08000
H963        H  0.02011351  0.75447780  0.57409439     0.09200
Cu964      Cu  0.09022319  0.86128323  0.56386193     0.44200
Cu965      Cu  0.08338910  0.78741632  0.61508830     0.42000
Cu966      Cu  0.15664271  0.84297879  0.61614142     0.43900
N967        N  0.13615541  0.88402083  0.55928749    -0.34500
N968        N  0.16189734  0.87605595  0.57774332    -0.28700
C969        C  0.18928701  0.89130916  0.56596831    -0.04800
C970        C  0.18023290  0.90934037  0.53842294     0.07400
C971        C  0.14621378  0.90475684  0.53552814     0.01200
H972        H  0.21407915  0.88863679  0.57603350     0.08900
H973        H  0.12961457  0.91581512  0.51790902     0.07900
N974        N  0.14613332  0.80664167  0.65047577    -0.35900
N975        N  0.12059651  0.78581779  0.64984028    -0.28100
C976        C  0.12463119  0.76278564  0.67348000    -0.03300
C977        C  0.15403062  0.76972532  0.68964691     0.05300
C978        C  0.16679254  0.79771472  0.67465053     0.03400
H979        H  0.10841752  0.74161729  0.67727986     0.08500
H980        H  0.19065838  0.80930808  0.67930912     0.07300
C981        C  0.95040182  0.77382239  0.97010413     0.45700
H982        H  0.94949927  0.77403589  0.94286492    -0.03300
C983        C  0.95196840  0.77334477  0.53398367     0.45700
H984        H  0.95265223  0.77319426  0.56122110    -0.03300
C985        C  0.92561684  0.79798042  0.98609948    -0.17000
C986        C  0.94250301  0.73962174  0.98506990    -0.16800
C987        C  0.98404697  0.78432629  0.98435060    -0.17200
C988        C  0.92658014  0.79803310  0.51984464    -0.17100
C989        C  0.94301796  0.73939588  0.51885477    -0.16700
C990        C  0.98489795  0.78396040  0.51806977    -0.17000
O991        O  0.20782452  0.75062760  0.79165836    -0.72700
O992        O  0.24925662  0.71234450  0.71170564    -0.73700
O993        O  0.19996183  0.75990579  0.72359062    -0.62300
O994        O  0.25717908  0.70429896  0.77967741    -0.70700
O995        O  0.21899860  0.66419699  0.78031387    -0.70300
O996        O  0.16135679  0.72031088  0.72131108    -0.61500
O997        O  0.21163233  0.67174108  0.71124913    -0.74000
O998        O  0.16856958  0.71158204  0.79036615    -0.72800
Cu999      Cu  0.22977456  0.73316800  0.75157422     1.04600
Cu1000     Cu  0.18866669  0.69048187  0.75069199     1.04300
C1001       C  0.18233079  0.73655862  0.80415020     0.93500
C1002       C  0.23719674  0.68592353  0.69900046     0.92600
C1003       C  0.17219103  0.74903514  0.71298156     0.84800
C1004       C  0.24681793  0.67622906  0.78994257     0.91000
N1005       N  0.28988999  0.56080742  0.56751883    -0.27100
N1006       N  0.32089732  0.55824557  0.55686791    -0.34900
C1007       C  0.32333149  0.53107195  0.53784123     0.01300
C1008       C  0.29215855  0.51667806  0.53521627     0.07300
C1009       C  0.27169268  0.53570399  0.55493098    -0.05800
H1010       H  0.34629902  0.52251813  0.52704775     0.08000
H1011       H  0.24536016  0.53201563  0.55923720     0.09200
Cu1012     Cu  0.35731842  0.59468221  0.56297297     0.44200
Cu1013     Cu  0.27387211  0.59841839  0.59839170     0.42000
Cu1014     Cu  0.32825996  0.67017545  0.59864493     0.43900
N1015       N  0.38181640  0.64008978  0.55790311    -0.34500
N1016       N  0.36951537  0.66829822  0.56928630    -0.28700
C1017       C  0.38702555  0.69398947  0.55718750    -0.04800
C1018       C  0.41134664  0.68137617  0.53685566     0.07400
C1019       C  0.40801531  0.64711034  0.53865219     0.01200
H1020       H  0.38136972  0.71996892  0.56153861     0.08900
H1021       H  0.42316719  0.62847684  0.52682097     0.07900
N1022       N  0.28854367  0.66447364  0.62957892    -0.35900
N1023       N  0.26835320  0.63848563  0.62981715    -0.28100
C1024       C  0.24626361  0.64221092  0.65433122    -0.03300
C1025       C  0.25325231  0.67190170  0.67006542     0.05300
C1026       C  0.28009200  0.68533719  0.65378288     0.03400
H1027       H  0.22723088  0.62428066  0.66071630     0.08500
H1028       H  0.29306475  0.70823375  0.65950165     0.07300
N1029       N  0.29751428  0.55322601  0.92326335    -0.27100
N1030       N  0.32690494  0.55211368  0.93786796    -0.34900
C1031       C  0.32656796  0.52727158  0.95986219     0.01300
C1032       C  0.29508463  0.51327145  0.96024499     0.07300
C1033       C  0.27758266  0.52965763  0.93607863    -0.05800
H1034       H  0.34784739  0.52010090  0.97432115     0.08000
H1035       H  0.25192526  0.52553017  0.92905300     0.09200
Cu1036     Cu  0.36363171  0.58870162  0.93365943     0.44200
Cu1037     Cu  0.28508820  0.58759812  0.88802566     0.42000
Cu1038     Cu  0.33671735  0.66109553  0.89121691     0.43900
N1039       N  0.38576645  0.63534751  0.93974119    -0.34500
N1040       N  0.37377127  0.66251752  0.92587016    -0.28700
C1041       C  0.38924359  0.68938451  0.93829167    -0.04800
C1042       C  0.41190643  0.67870736  0.96143659     0.07400
C1043       C  0.40982261  0.64423891  0.96093306     0.01200
H1044       H  0.38380006  0.71487801  0.93156256     0.08900
H1045       H  0.42483435  0.62669043  0.97443650     0.07900
N1046       N  0.30118733  0.65242675  0.85598088    -0.35900
N1047       N  0.28174396  0.62591511  0.85485715    -0.28100
C1048       C  0.26006945  0.62924398  0.82995151    -0.03300
C1049       C  0.26660252  0.65919933  0.81469752     0.05300
C1050       C  0.29276015  0.67320461  0.83173464     0.03400
H1051       H  0.24035020  0.61181901  0.82425597     0.08500
H1052       H  0.30375798  0.69749840  0.82790163     0.07300
C1053       C  0.27307894  0.45421666  0.53137933     0.45700
H1054       H  0.27321125  0.45482202  0.55862170    -0.03300
C1055       C  0.27306473  0.45237302  0.96750690     0.45700
H1056       H  0.27310065  0.45160251  0.94026653    -0.03300
C1057       C  0.29852527  0.42965602  0.51683766    -0.17000
C1058       C  0.23923197  0.44401395  0.51669086    -0.16800
C1059       C  0.28240013  0.48749194  0.51537277    -0.17200
C1060       C  0.29845128  0.42859288  0.98308768    -0.17100
C1061       C  0.23928279  0.44305208  0.98286701    -0.16700
C1062       C  0.28269264  0.48639350  0.98165979    -0.17000
N1063       N  0.92856702  0.66772457  0.57320934    -0.27100
N1064       N  0.89806394  0.67434308  0.56287735    -0.34900
C1065       C  0.89873743  0.70088773  0.54289033     0.01300
C1066       C  0.93129680  0.71122828  0.53943352     0.07300
C1067       C  0.94962995  0.69007979  0.55951899    -0.05800
H1068       H  0.87696190  0.71165345  0.53151584     0.08000
H1069       H  0.97628240  0.69056203  0.56337164     0.09200
Cu1070     Cu  0.85737723  0.64392686  0.57101014     0.44200
Cu1071     Cu  0.93801183  0.62747348  0.60511267     0.42000
Cu1072     Cu  0.87043692  0.56464767  0.60862016     0.43900
N1073       N  0.82513526  0.60432295  0.56476065    -0.34500
N1074       N  0.83056401  0.57417009  0.57659173    -0.28700
C1075       C  0.80818780  0.55305821  0.56309067    -0.04800
C1076       C  0.78826544  0.57093103  0.54150850     0.07400
C1077       C  0.79926686  0.60338768  0.54391833     0.01200
H1078       H  0.80724263  0.52654398  0.56768681     0.08900
H1079       H  0.78976428  0.62480275  0.53094334     0.07900
N1080       N  0.91278470  0.56429030  0.63898337    -0.35900
N1081       N  0.93706664  0.58664507  0.63771584    -0.28100
C1082       C  0.95997853  0.57902698  0.66080134    -0.03300
C1083       C  0.94978809  0.55062000  0.67743014     0.05300
C1084       C  0.91977478  0.54204459  0.66283033     0.03400
H1085       H  0.98249507  0.59314195  0.66516606     0.08500
H1086       H  0.90410064  0.52108267  0.66911022     0.07300
N1087       N  0.83527459  0.57030079  0.93186503    -0.27100
N1088       N  0.83003399  0.60041915  0.94377152    -0.34900
C1089       C  0.80414133  0.59981431  0.96445565     0.01300
C1090       C  0.79260250  0.56760781  0.96658595     0.07300
C1091       C  0.81241934  0.54946102  0.94504038    -0.05800
H1092       H  0.79419859  0.62155605  0.97651890     0.08000
H1093       H  0.81048307  0.52316300  0.93960284     0.09200
Cu1094     Cu  0.86047590  0.64050877  0.93532414     0.44200
Cu1095     Cu  0.87417970  0.56202987  0.89831475     0.42000
Cu1096     Cu  0.93794240  0.63044172  0.89487297     0.43900
N1097       N  0.89916480  0.67319551  0.94169889    -0.34500
N1098       N  0.92897464  0.66944067  0.92853432    -0.28700
C1099       C  0.94936867  0.69283537  0.94155493    -0.04800
C1100       C  0.93131186  0.71139021  0.96430061     0.07400
C1101       C  0.89954292  0.69858075  0.96303296     0.01200
H1102       H  0.97546809  0.69565050  0.93559454     0.08900
H1103       H  0.87805204  0.70690484  0.97662481     0.07900
N1104       N  0.93661683  0.58847775  0.86349431    -0.35900
N1105       N  0.91403465  0.56436321  0.86481827    -0.28100
C1106       C  0.92097206  0.54162667  0.84139718    -0.03300
C1107       C  0.94921876  0.55157336  0.82447959     0.05300
C1108       C  0.95837165  0.58140422  0.83919239     0.03400
H1109       H  0.90671528  0.51914983  0.83728798     0.08500
H1110       H  0.97961237  0.59669710  0.83290985     0.07300
O1111       O  0.54437089  0.00539715  0.71405764    -0.72700
O1112       O  0.49378527  0.95472019  0.78430461    -0.73700
O1113       O  0.49452715  0.95457439  0.71331971    -0.62300
O1114       O  0.54341621  0.00560421  0.78498588    -0.70700
O1115       O  0.50409661  0.04433365  0.78449165    -0.70300
O1116       O  0.45513118  0.99323263  0.71302798    -0.61500
O1117       O  0.45439574  0.99340422  0.78401760    -0.74000
O1118       O  0.50494862  0.04403697  0.71345778    -0.72800
Cu1119     Cu  0.52036432  0.97874814  0.74918107     1.04600
Cu1120     Cu  0.47827886  0.02006422  0.74872116     1.04300
C1121       C  0.53240478  0.03242034  0.70231519     0.93500
C1122       C  0.46648089  0.96639295  0.79569680     0.92600
C1123       C  0.46735897  0.96620667  0.70151118     0.84800
C1124       C  0.53122736  0.03271661  0.79638016     0.91000
N1125       N  0.77937543  0.93454857  0.93607647    -0.27100
N1126       N  0.81159865  0.93778072  0.94200721    -0.34900
C1127       C  0.81658490  0.96634403  0.95843638     0.01300
C1128       C  0.78595458  0.98095624  0.96406601     0.07300
C1129       C  0.76297772  0.96055797  0.94906759    -0.05800
H1130       H  0.84066959  0.97520845  0.96635086     0.08000
H1131       H  0.73622469  0.96375608  0.94857538     0.09200
Cu1132     Cu  0.84628049  0.89996899  0.93486246     0.44200
Cu1133     Cu  0.75897851  0.89453217  0.91185787     0.42000
Cu1134     Cu  0.80776054  0.82065203  0.91894979     0.43900
N1135       N  0.86911016  0.85439054  0.94393780    -0.34500
N1136       N  0.85336885  0.82565287  0.94088332    -0.28700
C1137       C  0.87181791  0.80132532  0.95420137    -0.04800
C1138       C  0.90046496  0.81542552  0.96641756     0.07400
C1139       C  0.89848906  0.84893800  0.95883607     0.01200
H1140       H  0.86438320  0.77547646  0.95583928     0.08900
H1141       H  0.91637607  0.86814352  0.96468493     0.07900
N1142       N  0.76952273  0.82572942  0.88614070    -0.35900
N1143       N  0.75139671  0.85301949  0.88335257    -0.28100
C1144       C  0.73321518  0.85119137  0.85580557    -0.03300
C1145       C  0.74087540  0.82155254  0.84044327     0.05300
C1146       C  0.76366019  0.80583845  0.86039194     0.03400
H1147       H  0.71790130  0.87114753  0.84630264     0.08500
H1148       H  0.77694617  0.78296391  0.85534033     0.07300
N1149       N  0.79558885  0.94802615  0.57878395    -0.27100
N1150       N  0.82331047  0.94678100  0.56137463    -0.34900
C1151       C  0.82163705  0.96934640  0.53725960     0.01300
C1152       C  0.79102010  0.98486694  0.53873504     0.07300
C1153       C  0.77538339  0.97141897  0.56589154    -0.05800
H1154       H  0.84166755  0.97429276  0.52040117     0.08000
H1155       H  0.75099240  0.97778498  0.57525936     0.09200
Cu1156     Cu  0.86010635  0.91114505  0.56649194     0.44200
Cu1157     Cu  0.78708108  0.91693796  0.61841078     0.42000
Cu1158     Cu  0.84502131  0.84595847  0.62228324     0.43900
N1159       N  0.88271957  0.86508052  0.56240010    -0.34500
N1160       N  0.87607158  0.83993827  0.58213202    -0.28700
C1161       C  0.89075343  0.81223823  0.57027441    -0.04800
C1162       C  0.90688604  0.82040161  0.54133271     0.07400
C1163       C  0.90190399  0.85429100  0.53767188     0.01200
H1164       H  0.88902220  0.78781666  0.58133935     0.08900
H1165       H  0.91167687  0.87029200  0.51887188     0.07900
N1166       N  0.80920474  0.85702451  0.65726922    -0.35900
N1167       N  0.78748948  0.88175631  0.65553678    -0.28100
C1168       C  0.76460247  0.87795928  0.67937920    -0.03300
C1169       C  0.77242305  0.84955710  0.69689727     0.05300
C1170       C  0.80093637  0.83715991  0.68237406     0.03400
H1171       H  0.74247666  0.89310938  0.68194609     0.08500
H1172       H  0.81287502  0.81357789  0.68754957     0.07300
C1173       C  0.77123590  0.04652064  0.53123616     0.45700
H1174       H  0.77153002  0.04771244  0.55846477    -0.03300
C1175       C  0.77079058  0.04422045  0.96737258     0.45700
H1176       H  0.77063408  0.04320016  0.94014192    -0.03300
C1177       C  0.79728628  0.06922439  0.51515747    -0.17000
C1178       C  0.77912461  0.01199951  0.51735747    -0.16800
C1179       C  0.73780013  0.05685920  0.51606561    -0.17200
C1180       C  0.79739383  0.06781000  0.98144008    -0.17100
C1181       C  0.77864076  0.01078904  0.98367102    -0.16700
C1182       C  0.73753481  0.05583001  0.98228462    -0.17000
O1183       O  0.70707838  0.82663212  0.79341883    -0.72700
O1184       O  0.67333869  0.79348516  0.70762178    -0.73700
O1185       O  0.66013165  0.77826769  0.77496423    -0.62300
O1186       O  0.72149625  0.84086228  0.72608515    -0.70700
O1187       O  0.76081378  0.80199730  0.72823923    -0.70300
O1188       O  0.69956683  0.73954706  0.77217606    -0.61500
O1189       O  0.71400822  0.75594900  0.70641404    -0.74000
O1190       O  0.74512919  0.78642674  0.79419634    -0.72800
Cu1191     Cu  0.68904115  0.81128380  0.75053206     1.04600
Cu1192     Cu  0.73119240  0.76970327  0.75022826     1.04300
C1193       C  0.73057245  0.81107192  0.80781434     0.93500
C1194       C  0.68895368  0.77010862  0.69310169     0.92600
C1195       C  0.67108355  0.74919300  0.78200494     0.84800
C1196       C  0.75070099  0.83046141  0.71875607     0.91000
N1197       N  0.56629563  0.72197755  0.56314190    -0.27100
N1198       N  0.56330230  0.68962670  0.55774488    -0.34900
C1199       C  0.53469687  0.68401936  0.54164781     0.01300
C1200       C  0.51967663  0.71430064  0.53562009     0.07300
C1201       C  0.53998539  0.73783708  0.54999574    -0.05800
H1202       H  0.52619632  0.65973309  0.53397838     0.08000
H1203       H  0.53657303  0.76456493  0.54983838     0.09200
Cu1204     Cu  0.60116709  0.65508679  0.56444368     0.44200
Cu1205     Cu  0.60629725  0.74293442  0.58730392     0.42000
Cu1206     Cu  0.67952781  0.69125826  0.58307477     0.43900
N1207       N  0.64614181  0.63145979  0.55504164    -0.34500
N1208       N  0.67508301  0.64640147  0.55946941    -0.28700
C1209       C  0.69943327  0.62758996  0.54665228    -0.04800
C1210       C  0.68507321  0.59957583  0.53321409     0.07400
C1211       C  0.65135554  0.60229122  0.53968015     0.01200
H1212       H  0.72556439  0.63415368  0.54655704     0.08900
H1213       H  0.63195165  0.58478292  0.53341957     0.07900
N1214       N  0.67385866  0.72981609  0.61552623    -0.35900
N1215       N  0.64721851  0.74905564  0.61726426    -0.28100
C1216       C  0.64915793  0.76776053  0.64452063    -0.03300
C1217       C  0.67819087  0.75932770  0.66068253     0.05300
C1218       C  0.69335283  0.73548563  0.64158280     0.03400
H1219       H  0.62974290  0.78426595  0.65313739     0.08500
H1220       H  0.71570993  0.72160192  0.64728655     0.07300
N1221       N  0.55561402  0.70288432  0.92188198    -0.27100
N1222       N  0.55695994  0.67527735  0.93942714    -0.34900
C1223       C  0.53395065  0.67692166  0.96318585     0.01300
C1224       C  0.51813124  0.70743506  0.96115039     0.07300
C1225       C  0.53185093  0.72294310  0.93416541    -0.05800
H1226       H  0.52878651  0.65691867  0.98001212     0.08000
H1227       H  0.52530526  0.74711579  0.92438289     0.09200
Cu1228     Cu  0.59294920  0.63863066  0.93386876     0.44200
Cu1229     Cu  0.58667874  0.71164157  0.88276763     0.42000
Cu1230     Cu  0.65922859  0.65532285  0.87941689     0.43900
N1231       N  0.63880395  0.61513111  0.93723166    -0.34500
N1232       N  0.66455371  0.62268524  0.91857134    -0.28700
C1233       C  0.69196438  0.60757219  0.93072312    -0.04800
C1234       C  0.68285877  0.59009153  0.95865891     0.07400
C1235       C  0.64885565  0.59478991  0.96133257     0.01200
H1236       H  0.71681625  0.61021080  0.92081227     0.08900
H1237       H  0.63237429  0.58439014  0.97940553     0.07900
N1238       N  0.64689252  0.69066401  0.84421301    -0.35900
N1239       N  0.62155347  0.71166914  0.84583500    -0.28100
C1240       C  0.62436963  0.73435116  0.82172151    -0.03300
C1241       C  0.65276124  0.72712185  0.80404538     0.05300
C1242       C  0.66618226  0.69917387  0.81877471     0.03400
H1243       H  0.60853881  0.75598787  0.81907675     0.08500
H1244       H  0.69005186  0.68787956  0.81348031     0.07300
C1245       C  0.45622493  0.72831251  0.53004420     0.45700
H1246       H  0.45623604  0.72899667  0.55728920    -0.03300
C1247       C  0.45609603  0.72661622  0.96617718     0.45700
H1248       H  0.45595332  0.72588246  0.93893399    -0.03300
C1249       C  0.49030699  0.72067976  0.51504933    -0.17000
C1250       C  0.43338731  0.70126564  0.51562605    -0.16800
C1251       C  0.44472493  0.76105512  0.51425868    -0.17200
C1252       C  0.49018744  0.71937005  0.98139357    -0.17100
C1253       C  0.43329577  0.70037741  0.98186281    -0.16700
C1254       C  0.44475239  0.76020812  0.98051244    -0.17000
N1255       N  0.66847362  0.07232634  0.57282731    -0.27100
N1256       N  0.67380418  0.10247125  0.56094315    -0.34900
C1257       C  0.69912328  0.10151726  0.53947413     0.01300
C1258       C  0.71005171  0.06908012  0.53685610     0.07300
C1259       C  0.69060658  0.05123057  0.55891694    -0.05800
H1260       H  0.70868924  0.12302493  0.52670262     0.08000
H1261       H  0.69196576  0.02479584  0.56384665     0.09200
Cu1262     Cu  0.64288550  0.14258278  0.56906276     0.44200
Cu1263     Cu  0.62923463  0.06302385  0.60584718     0.42000
Cu1264     Cu  0.56259912  0.12708566  0.60364736     0.43900
N1265       N  0.60275052  0.17357940  0.56132813    -0.34500
N1266       N  0.57229791  0.16741427  0.57202553    -0.28700
C1267       C  0.55138074  0.18994542  0.55844707    -0.04800
C1268       C  0.56975047  0.21066386  0.53799553     0.07400
C1269       C  0.60219407  0.19988458  0.54104220     0.01200
H1270       H  0.52476483  0.19071959  0.56248038     0.08900
H1271       H  0.62391908  0.21007711  0.52908481     0.07900
N1272       N  0.56317820  0.08592677  0.63573564    -0.35900
N1273       N  0.58710262  0.06316685  0.63668332    -0.28100
C1274       C  0.57991286  0.04094505  0.66050991    -0.03300
C1275       C  0.55017039  0.04999665  0.67539252     0.05300
C1276       C  0.54031672  0.07859685  0.65893312     0.03400
H1277       H  0.59524974  0.01967129  0.66657894     0.08500
H1278       H  0.51808749  0.09308474  0.66352441     0.07300
N1279       N  0.57139895  0.16817695  0.92739288    -0.27100
N1280       N  0.60165939  0.17259766  0.93939494    -0.34900
C1281       C  0.60156454  0.19817202  0.96057813     0.01300
C1282       C  0.56961291  0.21044918  0.96279807     0.07300
C1283       C  0.55110241  0.19133460  0.94090799    -0.05800
H1284       H  0.62333428  0.20698575  0.97346451     0.08000
H1285       H  0.52475065  0.19361481  0.93586067     0.09200
Cu1286     Cu  0.64103541  0.14082299  0.93149521     0.44200
Cu1287     Cu  0.56104087  0.12876536  0.89457164     0.42000
Cu1288     Cu  0.62618547  0.06221673  0.89497624     0.43900
N1289       N  0.67236490  0.10095062  0.93861408    -0.34500
N1290       N  0.66662153  0.07079537  0.92697806    -0.28700
C1291       C  0.68931526  0.04975527  0.94018212    -0.04800
C1292       C  0.70962624  0.06776738  0.96144108     0.07400
C1293       C  0.69846008  0.10013422  0.95914615     0.01200
H1294       H  0.69040554  0.02326986  0.93544904     0.08900
H1295       H  0.70831977  0.12167621  0.97164404     0.07900
N1296       N  0.58448956  0.06329844  0.86337275    -0.35900
N1297       N  0.56125371  0.08681210  0.86316436    -0.28100
C1298       C  0.53888886  0.07962458  0.83938217    -0.03300
C1299       C  0.54840059  0.05038318  0.82373163     0.05300
C1300       C  0.57736037  0.04082521  0.83974506     0.03400
H1301       H  0.51728922  0.09468505  0.83376884     0.08500
H1302       H  0.59229236  0.01904344  0.83450626     0.07300
N1303       N  0.21579029  0.06206583  0.93375524    -0.27100
N1304       N  0.18383460  0.05830021  0.94075851    -0.34900
C1305       C  0.17989445  0.02937858  0.95689204     0.01300
C1306       C  0.21091609  0.01507000  0.96129177     0.07300
C1307       C  0.23302957  0.03614401  0.94590955    -0.05800
H1308       H  0.15631477  0.02023740  0.96588492     0.08000
H1309       H  0.25983663  0.03360861  0.94486699     0.09200
Cu1310     Cu  0.14832223  0.09603334  0.93592664     0.44200
Cu1311     Cu  0.23483689  0.10250677  0.90891373     0.42000
Cu1312     Cu  0.18374892  0.17487401  0.91323823     0.43900
N1313       N  0.12553086  0.14187445  0.94506670    -0.34500
N1314       N  0.14062016  0.17054644  0.93947559    -0.28700
C1315       C  0.12306200  0.19540108  0.95300363    -0.04800
C1316       C  0.09562006  0.18182600  0.96808103     0.07400
C1317       C  0.09721831  0.14795617  0.96167392     0.01200
H1318       H  0.13016324  0.22138760  0.95247872     0.08900
H1319       H  0.07947090  0.12905267  0.96863047     0.07900
N1320       N  0.22154257  0.16953617  0.88008424    -0.35900
N1321       N  0.24089696  0.14300910  0.87850940    -0.28100
C1322       C  0.26031711  0.14532491  0.85179696    -0.03300
C1323       C  0.25226486  0.17454444  0.83580959     0.05300
C1324       C  0.22777317  0.18937535  0.85441285     0.03400
H1325       H  0.27754975  0.12632354  0.84369057     0.08500
H1326       H  0.21438896  0.21210039  0.84896807     0.07300
N1327       N  0.20558773  0.05373897  0.57472777    -0.27100
N1328       N  0.17705174  0.05410045  0.55856555    -0.34900
C1329       C  0.17784952  0.03055838  0.53527762     0.01300
C1330       C  0.20866180  0.01528289  0.53603583     0.07300
C1331       C  0.22538516  0.02999482  0.56187782    -0.05800
H1332       H  0.15697974  0.02451681  0.51979193     0.08000
H1333       H  0.25010640  0.02396886  0.57061311     0.09200
Cu1334     Cu  0.13931011  0.08873425  0.56531970     0.44200
Cu1335     Cu  0.21549444  0.08553578  0.61346190     0.42000
Cu1336     Cu  0.15453628  0.15365866  0.62090949     0.43900
N1337       N  0.11405939  0.13375378  0.56347876    -0.34500
N1338       N  0.12123712  0.15904762  0.58282043    -0.28700
C1339       C  0.10591571  0.18661137  0.57149505    -0.04800
C1340       C  0.08863365  0.17821699  0.54329476     0.07400
C1341       C  0.09351759  0.14426854  0.53972037     0.01200
H1342       H  0.10849043  0.21120094  0.58204259     0.08900
H1343       H  0.08313972  0.12809702  0.52146830     0.07900
N1344       N  0.19252091  0.14418321  0.65363343    -0.35900
N1345       N  0.21534134  0.12059767  0.65069842    -0.28100
C1346       C  0.23891391  0.12529033  0.67371842    -0.03300
C1347       C  0.23032094  0.15311783  0.69179439     0.05300
C1348       C  0.20075114  0.16423352  0.67856889     0.03400
H1349       H  0.26168236  0.11100581  0.67556181     0.08500
H1350       H  0.18761113  0.18690581  0.68475720     0.07300
C1351       C  0.22781445  0.95216251  0.96750123     0.45700
H1352       H  0.22753165  0.95155748  0.94025857    -0.03300
C1353       C  0.22838311  0.95325539  0.53141276     0.45700
H1354       H  0.22857001  0.95369659  0.55865715    -0.03300
C1355       C  0.20204544  0.92881238  0.98327623    -0.17000
C1356       C  0.26148209  0.94193690  0.98244940    -0.16800
C1357       C  0.21951101  0.98632755  0.98211783    -0.17200
C1358       C  0.20232051  0.92937221  0.51703889    -0.22700
C1359       C  0.26169891  0.94243157  0.51621464    -0.16700
C1360       C  0.21976589  0.98689959  0.51582149    -0.17000
O1361       O  0.32901244  0.20989906  0.70937684    -0.72700
O1362       O  0.28986074  0.17188652  0.79122655    -0.73700
O1363       O  0.27997102  0.16143528  0.72270420    -0.62300
O1364       O  0.33842180  0.22049209  0.77775865    -0.70700
O1365       O  0.29940954  0.25971558  0.77583170    -0.70300
O1366       O  0.24078290  0.20049221  0.72395948    -0.61500
O1367       O  0.25170613  0.21200124  0.79136307    -0.74000
O1368       O  0.28890462  0.24804831  0.70834043    -0.72800
Cu1369     Cu  0.31075062  0.18948103  0.75025520     1.04600
Cu1370     Cu  0.26887475  0.23139161  0.74981917     1.04300
C1371       C  0.31465174  0.23458678  0.69568477     0.93500
C1372       C  0.26517833  0.18657660  0.80461118     0.92600
C1373       C  0.25124411  0.17217001  0.71431167     0.84800
C1374       C  0.32748733  0.24916032  0.78605624     0.91000
N1375       N  0.44777943  0.29391898  0.92419143    -0.27100
N1376       N  0.44687904  0.32243980  0.94033506    -0.34900
C1377       C  0.47118041  0.32266376  0.96279536     0.01300
C1378       C  0.48739737  0.29242220  0.96177490     0.07300
C1379       C  0.47256549  0.27500400  0.93643488    -0.05800
H1380       H  0.47664464  0.34365410  0.97823493     0.08000
H1381       H  0.47881015  0.25022005  0.92803221     0.09200
Cu1382     Cu  0.40970044  0.35792327  0.93668011     0.44200
Cu1383     Cu  0.41470660  0.28284012  0.88689741     0.42000
Cu1384     Cu  0.34253196  0.33983057  0.88563431     0.43900
N1385       N  0.36389214  0.38093325  0.94197589    -0.34500
N1386       N  0.33788776  0.37288367  0.92393609    -0.28700
C1387       C  0.31077739  0.38867593  0.93557143    -0.04800
C1388       C  0.32021811  0.40722260  0.96263233     0.07400
C1389       C  0.35425811  0.40235705  0.96534008     0.01200
H1390       H  0.28594485  0.38630406  0.92553111     0.08900
H1391       H  0.37122310  0.41394406  0.98225396     0.07900
N1392       N  0.35319671  0.30467560  0.85036425    -0.35900
N1393       N  0.37826708  0.28329876  0.85104073    -0.28100
C1394       C  0.37451189  0.26137549  0.82636677    -0.03300
C1395       C  0.34581456  0.26959085  0.80950462     0.05300
C1396       C  0.33313113  0.29720104  0.82521401     0.03400
H1397       H  0.39022043  0.23985534  0.82242711     0.08500
H1398       H  0.30953164  0.30929580  0.82048210     0.07300
N1399       N  0.44008379  0.28650902  0.56683569    -0.27100
N1400       N  0.44309265  0.31821340  0.55847944    -0.34900
C1401       C  0.47116610  0.32174677  0.54085419     0.01300
C1402       C  0.48539973  0.29062797  0.53670246     0.07300
C1403       C  0.46550943  0.26902397  0.55407236    -0.05800
H1404       H  0.48009945  0.34519536  0.53142205     0.08000
H1405       H  0.46865779  0.24237117  0.55642744     0.09200
Cu1406     Cu  0.40557951  0.35397381  0.56453042     0.44200
Cu1407     Cu  0.40159916  0.26764444  0.59441726     0.42000
Cu1408     Cu  0.32822311  0.31609101  0.58754113     0.43900
N1409       N  0.35911412  0.37685007  0.55833009    -0.34500
N1410       N  0.33092595  0.36090957  0.56405473    -0.28700
C1411       C  0.30528348  0.37843073  0.55198029    -0.04800
C1412       C  0.31775259  0.40686666  0.53783973     0.07400
C1413       C  0.35187758  0.40567981  0.54304457     0.01200
H1414       H  0.27961132  0.37023084  0.55209130     0.08900
H1415       H  0.37023013  0.42362341  0.53508435     0.07900
N1416       N  0.33341524  0.27845079  0.62082145    -0.35900
N1417       N  0.36063424  0.26027995  0.62373920    -0.28100
C1418       C  0.35787845  0.24084980  0.65040352    -0.03300
C1419       C  0.32755484  0.24765853  0.66491153     0.05300
C1420       C  0.31263940  0.27146262  0.64554642     0.03400
H1421       H  0.37718395  0.22446851  0.65947186     0.08500
H1422       H  0.28916113  0.28393327  0.64988408     0.07300
C1423       C  0.54785268  0.27234217  0.53234974     0.45700
H1424       H  0.54727792  0.27227125  0.55959303    -0.03300
C1425       C  0.54915652  0.27248944  0.96845022     0.45700
H1426       H  0.54990990  0.27265994  0.94120830    -0.03300
C1427       C  0.57216758  0.29793424  0.51791942    -0.17000
C1428       C  0.55802235  0.23867864  0.51730563    -0.16800
C1429       C  0.51449714  0.28156609  0.51658892    -0.17200
C1430       C  0.57303255  0.29778837  0.98418206    -0.17100
C1431       C  0.55846846  0.23872902  0.98353570    -0.16700
C1432       C  0.51514815  0.28159078  0.98287006    -0.17000
N1433       N  0.33321008  0.92744092  0.57031469    -0.27100
N1434       N  0.32697711  0.89707984  0.55937120    -0.34900
C1435       C  0.30033544  0.89783276  0.53951365     0.01300
C1436       C  0.28960286  0.93032755  0.53681321     0.07300
C1437       C  0.31055836  0.94849327  0.55717558    -0.05800
H1438       H  0.28992023  0.87620440  0.52758680     0.08000
H1439       H  0.30989712  0.97508016  0.56140899     0.09200
Cu1440     Cu  0.35847001  0.85692764  0.56566775     0.44200
Cu1441     Cu  0.37354902  0.93710932  0.60179601     0.42000
Cu1442     Cu  0.43843947  0.87193821  0.60155468     0.43900
N1443       N  0.39895914  0.82627570  0.55751602    -0.34500
N1444       N  0.42920470  0.83227627  0.56888004    -0.28700
C1445       C  0.45036182  0.80985918  0.55547894    -0.04800
C1446       C  0.43245005  0.78935699  0.53439960     0.07400
C1447       C  0.39991933  0.80013092  0.53699159     0.01200
H1448       H  0.47685015  0.80887475  0.56023158     0.08900
H1449       H  0.37832867  0.78978493  0.52494251     0.07900
N1450       N  0.43793241  0.91298843  0.63390290    -0.35900
N1451       N  0.41463794  0.93639273  0.63385160    -0.28100
C1452       C  0.42141842  0.95851256  0.65788752    -0.03300
C1453       C  0.45025792  0.94875669  0.67401442     0.05300
C1454       C  0.46001011  0.91980052  0.65801872     0.03400
H1455       H  0.40639417  0.98019536  0.66327328     0.08500
H1456       H  0.48164226  0.90475210  0.66353244     0.07300
N1457       N  0.42967985  0.83142568  0.92614434    -0.27100
N1458       N  0.39948486  0.82566001  0.93771972    -0.34900
C1459       C  0.40020834  0.79895711  0.95745361     0.01300
C1460       C  0.43252459  0.78759276  0.95934594     0.07300
C1461       C  0.45063554  0.80835668  0.93873265    -0.05800
H1462       H  0.37871516  0.78904002  0.96998619     0.08000
H1463       H  0.47715941  0.80743315  0.93416165     0.09200
Cu1464     Cu  0.35968896  0.85768327  0.93228186     0.44200
Cu1465     Cu  0.43898568  0.87198591  0.89491346     0.42000
Cu1466     Cu  0.37255316  0.93682245  0.89520183     0.43900
N1467       N  0.32775249  0.89727511  0.93963061    -0.34500
N1468       N  0.33276890  0.92740765  0.92760042    -0.28700
C1469       C  0.30956613  0.94810550  0.94041268    -0.04800
C1470       C  0.28954561  0.92997807  0.96177246     0.07400
C1471       C  0.30151306  0.89781328  0.96002384     0.01200
H1472       H  0.30786992  0.97447647  0.93526006     0.08900
H1473       H  0.29202592  0.87620973  0.97268477     0.07900
N1474       N  0.41373001  0.93624235  0.86309220    -0.35900
N1475       N  0.43739675  0.91318891  0.86309872    -0.28100
C1476       C  0.45938834  0.92021689  0.83904366    -0.03300
C1477       C  0.44925090  0.94892929  0.82298601     0.05300
C1478       C  0.42025348  0.95837669  0.83899944     0.03400
H1479       H  0.48125547  0.90546909  0.83363448     0.08500
H1480       H  0.40499548  0.97987745  0.83355177     0.07300
loop_ 
_geom_bond_atom_site_label_1 
_geom_bond_atom_site_label_2 
_geom_bond_distance 
_geom_bond_site_symmetry_2 
_ccdc_geom_bond_type 
O1           Cu9   2.043   1_455  S
O1           C11   1.282       .  A
O2           Cu9   2.038       .  S
O2           C12   1.281       .  A
O3           Cu9   2.034       .  S
O3           C13   1.280       .  A
O4           Cu9   2.038   1_455  S
O4           C14   1.280       .  A
O5          Cu10   2.040       .  S
O5           C14   1.281       .  A
O6          Cu10   2.036   1_655  S
O6           C13   1.280       .  A
O7          Cu10   2.032   1_655  S
O7           C12   1.279       .  A
O8          Cu10   2.031       .  S
O8           C11   1.279       .  A
Cu9         Cu10   2.368   1_655  S
C11         C165   1.490       .  S
C12         C367   1.488       .  S
C13         C343   1.488       .  S
C14         C189   1.492       .  S
N15          N16   1.323       .  A
N15          C19   1.347       .  A
N15         Cu23   2.068       .  S
N16          C17   1.342       .  A
N16         Cu22   2.085       .  S
C17          C18   1.383       .  A
C17          H20   1.078       .  S
C18          C19   1.381       .  A
C18          C69   1.477   1_655  S
C19          H21   1.082       .  S
Cu22         N25   2.084       .  S
Cu23         N33   2.068       .  S
Cu24         N26   2.057       .  S
Cu24         N32   2.060       .  S
N25          N26   1.320       .  A
N25          C29   1.343       .  A
N26          C27   1.346       .  A
C27          C28   1.382       .  A
C27          H30   1.082       .  S
C28          C29   1.386       .  A
C28         C440   1.482       .  S
C29          H31   1.077       .  S
N32          N33   1.322       .  A
N32          C36   1.339       .  A
N33          C34   1.347       .  A
C34          C35   1.383       .  A
C34          H37   1.082       .  S
C35          C86   1.462       .  S
C35          C36   1.380       .  A
C36          H38   1.082       .  S
N39          N40   1.323       .  A
N39          C43   1.344       .  A
N39         Cu47   2.051       .  S
N40          C41   1.343       .  A
N40         Cu46   2.086       .  S
C41          C42   1.383       .  A
C41          H44   1.079       .  S
C42          C43   1.376       .  A
C42          C72   1.470   1_655  S
C43          H45   1.082       .  S
Cu46         N49   2.085       .  S
Cu47         N57   2.050       .  S
Cu48         N50   2.049       .  S
Cu48         N56   2.050       .  S
N49          N50   1.321       .  A
N49          C53   1.345       .  A
N50          C51   1.342       .  A
C51          C52   1.376       .  A
C51          H54   1.082       .  S
C52          C53   1.385       .  A
C52         C437   1.472       .  S
C53          H55   1.080       .  S
N56          N57   1.321       .  A
N56          C60   1.340       .  A
N57          C58   1.341       .  A
C58          C59   1.379       .  A
C58          H61   1.082       .  S
C59          C84   1.455       .  S
C59          C60   1.378       .  A
C60          H62   1.082       .  S
C63          H64   1.112       .  S
C63          C69   1.532       .  S
C63          C68   1.538       .  S
C63          C67   1.537       .  S
C65          H66   1.112       .  S
C65          C71   1.542       .  S
C65          C70   1.537       .  S
C65          C72   1.532       .  S
C67         C576   1.472       .  S
C67         C810   1.379       .  D
C68         C182   1.491       .  S
C68         C811   1.378       .  D
C69         C812   1.375       .  D
C70         C600   1.485       .  S
C70         C807   1.379   1_554  D
C71         C148   1.486       .  S
C71         C808   1.378   1_554  D
C72         C809   1.375   1_554  D
O73         Cu81   1.995       .  S
O73          C83   1.275       .  A
O74         Cu81   1.992       .  S
O74          C84   1.275       .  A
O75         Cu81   2.019       .  S
O75          C85   1.279       .  A
O76         Cu81   2.019       .  S
O76          C86   1.279       .  A
O77         Cu82   1.979       .  S
O77          C86   1.274       .  A
O78         Cu82   1.979       .  S
O78          C85   1.274       .  A
O79         Cu82   1.991       .  S
O79          C84   1.276       .  A
O80         Cu82   1.992       .  S
O80          C83   1.277       .  A
Cu81        Cu82   2.379       .  S
C83         C107   1.457       .  S
C85         C131   1.462       .  S
N87          N88   1.324       .  A
N87          C91   1.346       .  A
N87         Cu95   2.066       .  S
N88          C89   1.342       .  A
N88         Cu94   2.081       .  S
C89          C90   1.380       .  A
C89          H92   1.079       .  S
C90          C91   1.380       .  A
C90         C144   1.472       .  S
C91          H93   1.082       .  S
Cu94         N97   2.080       .  S
Cu95        N105   2.065       .  S
Cu96         N98   2.045       .  S
Cu96        N104   2.045       .  S
N97          N98   1.320       .  A
N97         C101   1.345       .  A
N98          C99   1.342       .  A
C99         C100   1.377       .  A
C99         H102   1.082       .  S
C100        C101   1.385       .  A
C100        C690   1.472       .  S
C101        H103   1.079       .  S
N104        N105   1.321       .  A
N104        C108   1.338       .  A
N105        C106   1.345       .  A
C106        C107   1.382       .  A
C106        H109   1.082       .  S
C107        C108   1.375       .  A
C108        H110   1.082       .  S
N111        N112   1.323       .  A
N111        C115   1.347       .  A
N111       Cu119   2.072       .  S
N112        C113   1.342       .  A
N112       Cu118   2.080       .  S
C113        C114   1.382       .  A
C113        H116   1.079       .  S
C114        C115   1.381       .  A
C114        C141   1.477       .  S
C115        H117   1.082       .  S
Cu118       N121   2.079       .  S
Cu119       N129   2.072       .  S
Cu120       N122   2.059       .  S
Cu120       N128   2.060       .  S
N121        N122   1.319       .  A
N121        C125   1.342       .  A
N122        C123   1.346       .  A
C123        C124   1.382       .  A
C123        H126   1.082       .  S
C124        C125   1.385       .  A
C124        C687   1.480       .  S
C125        H127   1.076       .  S
N128        N129   1.322       .  A
N128        C132   1.339       .  A
N129        C130   1.347       .  A
C130        C131   1.383       .  A
C130        H133   1.082       .  S
C131        C132   1.380       .  A
C132        H134   1.082       .  S
C135        H136   1.112       .  S
C135        C141   1.532       .  S
C135        C140   1.534       .  S
C135        C139   1.534       .  S
C137        H138   1.112       .  S
C137        C143   1.539       .  S
C137        C142   1.539       .  S
C137        C144   1.533       .  S
C139        C470   1.471       .  S
C139        C882   1.378   1_554  D
C140        C336   1.484       .  S
C140        C883   1.378   1_554  D
C141        C884   1.375   1_554  D
C142        C494   1.486       .  S
C142        C879   1.378       .  D
C143        C350   1.481       .  S
C143        C880   1.378       .  D
C144        C881   1.375       .  D
N145        N146   1.321       .  A
N145        C149   1.354       .  A
N145       Cu153   2.103       .  S
N146        C147   1.342       .  A
N146       Cu152   2.066       .  S
C147        C148   1.380       .  A
C147        H150   1.079       .  S
C148        C149   1.391       .  A
C149        H151   1.082       .  S
Cu152       N155   2.066       .  S
Cu153       N163   2.105       .  S
Cu154       N156   2.122       .  S
Cu154       N162   2.124       .  S
N155        N156   1.321       .  A
N155        C159   1.342       .  A
N156        C157   1.357       .  A
C157        C158   1.396       .  A
C157        H160   1.082       .  S
C158        C159   1.380       .  A
C158        C318   1.493       .  S
C159        H161   1.078       .  S
N162        N163   1.328       .  A
N162        C166   1.352       .  A
N163        C164   1.351       .  A
C164        C165   1.387       .  A
C164        H167   1.082       .  S
C165        C166   1.390       .  A
C166        H168   1.082       .  S
N169        N170   1.321       .  A
N169        C173   1.354       .  A
N169       Cu177   2.106       .  S
N170        C171   1.343       .  A
N170       Cu176   2.069       .  S
C171        C172   1.380       .  A
C171        H174   1.079       .  S
C172        C173   1.391       .  A
C172        C321   1.488       .  S
C173        H175   1.082       .  S
Cu176       N179   2.069       .  S
Cu177       N187   2.108       .  S
Cu178       N180   2.119       .  S
Cu178       N186   2.121       .  S
N179        N180   1.322       .  A
N179        C183   1.344       .  A
N180        C181   1.355       .  A
C181        C182   1.393       .  A
C181        H184   1.082       .  S
C182        C183   1.380       .  A
C183        H185   1.080       .  S
N186        N187   1.327       .  A
N186        C190   1.353       .  A
N187        C188   1.351       .  A
C188        C189   1.387       .  A
C188        H191   1.082       .  S
C189        C190   1.391       .  A
C190        H192   1.082       .  S
N193        N194   1.323       .  A
N193        C197   1.344       .  A
N193       Cu201   2.054       .  S
N194        C195   1.346       .  A
N194       Cu200   2.097       .  S
C195        C196   1.386       .  A
C195        H198   1.079       .  S
C196        C197   1.376       .  A
C196        C247   1.476   1_455  S
C197        H199   1.082       .  S
Cu200       N203   2.096       .  S
Cu201       N211   2.053       .  S
Cu202       N204   2.044       .  S
Cu202       N210   2.043       .  S
N203        N204   1.322       .  A
N203        C207   1.347       .  A
N204        C205   1.341       .  A
C205        C206   1.375       .  A
C205        H208   1.082       .  S
C206        C207   1.387       .  A
C206        C615   1.473       .  S
C207        H209   1.081       .  S
N210        N211   1.320       .  A
N210        C214   1.338       .  A
N211        C212   1.343       .  A
C212        C213   1.380       .  A
C212        H215   1.082       .  S
C213        C261   1.454       .  S
C213        C214   1.377       .  A
C214        H216   1.082       .  S
N217        N218   1.321       .  A
N217        C221   1.346       .  A
N217       Cu225   2.059       .  S
N218        C219   1.339       .  A
N218       Cu224   2.067       .  S
C219        C220   1.380       .  A
C219        H222   1.073       .  S
C220        C221   1.381       .  A
C220        C250   1.472   1_455  S
C221        H223   1.082       .  S
Cu224       N227   2.066       .  S
Cu225       N235   2.060       .  S
Cu226       N228   2.065       .  S
Cu226       N234   2.066       .  S
N227        N228   1.318       .  A
N227        C231   1.340       .  A
N228        C229   1.348       .  A
C229        C230   1.385       .  A
C229        H232   1.082       .  S
C230        C231   1.383       .  A
C230        C618   1.482       .  S
C231        H233   1.076       .  S
N234        N235   1.323       .  A
N234        C238   1.338       .  A
N235        C236   1.346       .  A
C236        C237   1.380       .  A
C236        H239   1.082       .  S
C237        C263   1.459       .  S
C237        C238   1.379       .  A
C238        H240   1.082       .  S
C241        H242   1.112       .  S
C241        C247   1.530       .  S
C241        C246   1.536       .  S
C241        C245   1.535       .  S
C243        H244   1.112       .  S
C243        C249   1.539       .  S
C243        C248   1.535       .  S
C243        C250   1.534       .  S
C245        C398   1.468       .  S
C245        C988   1.377       .  D
C246        C360   1.485       .  S
C246        C989   1.378       .  D
C247        C990   1.376       .  D
C248        C422   1.483       .  S
C248        C985   1.377   1_554  D
C249        C326   1.485       .  S
C249        C986   1.378   1_554  D
C250        C987   1.376   1_554  D
O251       Cu259   1.986       .  S
O251        C261   1.276       .  A
O252       Cu259   1.989       .  S
O252        C262   1.276       .  A
O253       Cu259   1.972       .  S
O253        C263   1.273       .  A
O254       Cu259   1.967       .  S
O254        C264   1.273       .  A
O255       Cu260   2.014       .  S
O255        C264   1.279       .  A
O256       Cu260   2.018       .  S
O256        C263   1.279       .  A
O257       Cu260   2.002       .  S
O257        C262   1.276       .  A
O258       Cu260   1.997       .  S
O258        C261   1.276       .  A
Cu259      Cu260   2.380       .  S
C262        C285   1.458       .  S
C264        C309   1.456       .  S
N265        N266   1.323       .  A
N265        C269   1.347       .  A
N265       Cu273   2.069       .  S
N266        C267   1.343       .  A
N266       Cu272   2.084       .  S
C267        C268   1.383       .  A
C267        H270   1.078       .  S
C268        C269   1.381       .  A
C268        C319   1.477       .  S
C269        H271   1.082       .  S
Cu272       N275   2.082       .  S
Cu273       N283   2.069       .  S
Cu274       N276   2.046       .  S
Cu274       N282   2.047       .  S
N275        N276   1.320       .  A
N275        C279   1.343       .  A
N276        C277   1.343       .  A
C277        C278   1.378       .  A
C277        H280   1.082       .  S
C278        C279   1.384       .  A
C278        C510   1.474       .  S
C279        H281   1.078       .  S
N282        N283   1.322       .  A
N282        C286   1.339       .  A
N283        C284   1.345       .  A
C284        C285   1.383       .  A
C284        H287   1.082       .  S
C285        C286   1.376       .  A
C286        H288   1.082       .  S
N289        N290   1.323       .  A
N289        C293   1.345       .  A
N289       Cu297   2.055       .  S
N290        C291   1.342       .  A
N290       Cu296   2.089       .  S
C291        C292   1.384       .  A
C291        H294   1.077       .  S
C292        C293   1.378       .  A
C292        C322   1.475       .  S
C293        H295   1.082       .  S
Cu296       N299   2.088       .  S
Cu297       N307   2.054       .  S
Cu298       N300   2.053       .  S
Cu298       N306   2.055       .  S
N299        N300   1.320       .  A
N299        C303   1.344       .  A
N300        C301   1.344       .  A
C301        C302   1.380       .  A
C301        H304   1.082       .  S
C302        C303   1.387       .  A
C302        C513   1.479       .  S
C303        H305   1.079       .  S
N306        N307   1.321       .  A
N306        C310   1.338       .  A
N307        C308   1.344       .  A
C308        C309   1.380       .  A
C308        H311   1.082       .  S
C309        C310   1.379       .  A
C310        H312   1.082       .  S
C313        H314   1.112       .  S
C313        C319   1.534       .  S
C313        C318   1.541       .  S
C313        C317   1.539       .  S
C315        H316   1.112       .  S
C315        C321   1.541       .  S
C315        C320   1.535       .  S
C315        C322   1.533       .  S
C317        C672   1.472       .  S
C317       C1060   1.378   1_554  D
C318       C1061   1.380   1_554  D
C319       C1062   1.376   1_554  D
C320        C648   1.482       .  S
C320       C1057   1.378       .  D
C321       C1058   1.380       .  D
C322       C1059   1.376       .  D
N323        N324   1.322       .  A
N323        C327   1.354       .  A
N323       Cu331   2.110       .  S
N324        C325   1.342       .  A
N324       Cu330   2.067       .  S
C325        C326   1.379       .  A
C325        H328   1.080       .  S
C326        C327   1.391       .  A
C327        H329   1.082       .  S
Cu330       N333   2.066       .  S
Cu331       N341   2.112       .  S
Cu332       N334   2.101       .  S
Cu332       N340   2.104       .  S
N333        N334   1.322       .  A
N333        C337   1.343       .  A
N334        C335   1.352       .  A
C335        C336   1.389       .  A
C335        H338   1.082       .  S
C336        C337   1.380       .  A
C337        H339   1.080       .  S
N340        N341   1.326       .  A
N340        C344   1.350       .  A
N341        C342   1.352       .  A
C342        C343   1.389       .  A
C342        H345   1.082       .  S
C343        C344   1.388       .  A
C344        H346   1.082       .  S
N347        N348   1.320       .  A
N347        C351   1.353       .  A
N347       Cu355   2.104       .  S
N348        C349   1.339       .  A
N348       Cu354   2.051       .  S
C349        C350   1.377       .  A
C349        H352   1.079       .  S
C350        C351   1.392       .  A
C351        H353   1.082       .  S
Cu354       N357   2.050       .  S
Cu355       N365   2.107       .  S
Cu356       N358   2.114       .  S
Cu356       N364   2.117       .  S
N357        N358   1.321       .  A
N357        C361   1.340       .  A
N358        C359   1.355       .  A
C359        C360   1.394       .  A
C359        H362   1.082       .  S
C360        C361   1.376       .  A
C361        H363   1.079       .  S
N364        N365   1.328       .  A
N364        C368   1.352       .  A
N365        C366   1.351       .  A
C366        C367   1.387       .  A
C366        H369   1.082       .  S
C367        C368   1.389       .  A
C368        H370   1.082       .  S
O371       Cu379   2.032   1_545  S
O371        C381   1.280       .  A
O372       Cu379   2.031       .  S
O372        C382   1.280       .  A
O373       Cu379   2.039       .  S
O373        C383   1.281       .  A
O374       Cu379   2.038   1_545  S
O374        C384   1.281       .  A
O375       Cu380   2.038       .  S
O375        C384   1.280       .  A
O376       Cu380   2.036   1_565  S
O376        C383   1.280       .  A
O377       Cu380   2.035   1_565  S
O377        C382   1.280       .  A
O378       Cu380   2.036       .  S
O378        C381   1.281       .  A
Cu379      Cu380   2.368   1_565  S
C381        C535   1.488       .  S
C382        C737   1.487       .  S
C383        C713   1.490       .  S
C384        C559   1.491       .  S
N385        N386   1.323       .  A
N385        C389   1.344       .  A
N385       Cu393   2.056       .  S
N386        C387   1.343       .  A
N386       Cu392   2.081       .  S
C387        C388   1.382       .  A
C387        H390   1.080       .  S
C388        C389   1.377       .  A
C388        C441   1.470   1_565  S
C389        H391   1.082       .  S
Cu392       N395   2.080       .  S
Cu393       N403   2.055       .  S
Cu394       N396   2.048       .  S
Cu394       N402   2.047       .  S
N395        N396   1.322       .  A
N395        C399   1.345       .  A
N396        C397   1.341       .  A
C397        C398   1.375       .  A
C397        H400   1.082       .  S
C398        C399   1.383       .  A
C399        H401   1.080       .  S
N402        N403   1.321       .  A
N402        C406   1.340       .  A
N403        C404   1.342       .  A
C404        C405   1.380       .  A
C404        H407   1.082       .  S
C405        C453   1.456       .  S
C405        C406   1.377       .  A
C406        H408   1.082       .  S
N409        N410   1.321       .  A
N409        C413   1.348       .  A
N409       Cu417   2.071       .  S
N410        C411   1.339       .  A
N410       Cu416   2.068       .  S
C411        C412   1.380       .  A
C411        H414   1.077       .  S
C412        C413   1.383       .  A
C412        C438   1.475   1_565  S
C413        H415   1.082       .  S
Cu416       N419   2.067       .  S
Cu417       N427   2.072       .  S
Cu418       N420   2.073       .  S
Cu418       N426   2.075       .  S
N419        N420   1.319       .  A
N419        C423   1.341       .  A
N420        C421   1.349       .  A
C421        C422   1.386       .  A
C421        H424   1.082       .  S
C422        C423   1.384       .  A
C423        H425   1.075       .  S
N426        N427   1.324       .  A
N426        C430   1.340       .  A
N427        C428   1.347       .  A
C428        C429   1.382       .  A
C428        H431   1.082       .  S
C429        C456   1.464       .  S
C429        C430   1.382       .  A
C430        H432   1.082       .  S
C433        H434   1.112       .  S
C433        C439   1.535       .  S
C433        C438   1.531       .  S
C433        C437   1.535       .  S
C435        H436   1.112       .  S
C435        C441   1.531       .  S
C435        C440   1.539       .  S
C435        C442   1.540       .  S
C437       C1180   1.377   1_554  D
C438       C1181   1.375   1_554  D
C439        C518   1.484       .  S
C439       C1182   1.379   1_554  D
C440       C1177   1.377       .  D
C441       C1178   1.375       .  D
C442        C552   1.486       .  S
C442       C1179   1.379       .  D
O443       Cu451   1.991       .  S
O443        C453   1.275       .  A
O444       Cu451   1.993       .  S
O444        C454   1.275       .  A
O445       Cu451   2.025       .  S
O445        C455   1.280       .  A
O446       Cu451   2.026       .  S
O446        C456   1.280       .  A
O447       Cu452   1.975       .  S
O447        C456   1.273       .  A
O448       Cu452   1.970       .  S
O448        C455   1.272       .  A
O449       Cu452   1.994       .  S
O449        C454   1.277       .  A
O450       Cu452   1.995       .  S
O450        C453   1.277       .  A
Cu451      Cu452   2.378       .  S
C454        C477   1.457       .  S
C455        C501   1.461       .  S
N457        N458   1.323       .  A
N457        C461   1.345       .  A
N457       Cu465   2.064       .  S
N458        C459   1.342       .  A
N458       Cu464   2.076       .  S
C459        C460   1.380       .  A
C459        H462   1.080       .  S
C460        C461   1.379       .  A
C460        C509   1.470       .  S
C461        H463   1.082       .  S
Cu464       N467   2.076       .  S
Cu465       N475   2.062       .  S
Cu466       N468   2.050       .  S
Cu466       N474   2.050       .  S
N467        N468   1.320       .  A
N467        C471   1.345       .  A
N468        C469   1.342       .  A
C469        C470   1.378       .  A
C469        H472   1.082       .  S
C470        C471   1.384       .  A
C471        H473   1.080       .  S
N474        N475   1.321       .  A
N474        C478   1.339       .  A
N475        C476   1.344       .  A
C476        C477   1.381       .  A
C476        H479   1.082       .  S
C477        C478   1.376       .  A
C478        H480   1.082       .  S
N481        N482   1.321       .  A
N481        C485   1.346       .  A
N481       Cu489   2.056       .  S
N482        C483   1.341       .  A
N482       Cu488   2.075       .  S
C483        C484   1.383       .  A
C483        H486   1.077       .  S
C484        C485   1.380       .  A
C484        C512   1.473       .  S
C485        H487   1.082       .  S
Cu488       N491   2.074       .  S
Cu489       N499   2.057       .  S
Cu490       N492   2.077       .  S
Cu490       N498   2.079       .  S
N491        N492   1.319       .  A
N491        C495   1.341       .  A
N492        C493   1.351       .  A
C493        C494   1.388       .  A
C493        H496   1.082       .  S
C494        C495   1.383       .  A
C495        H497   1.075       .  S
N498        N499   1.323       .  A
N498        C502   1.339       .  A
N499        C500   1.346       .  A
C500        C501   1.380       .  A
C500        H503   1.082       .  S
C501        C502   1.382       .  A
C502        H504   1.082       .  S
C505        H506   1.112       .  S
C505        C511   1.535       .  S
C505        C510   1.538       .  S
C505        C509   1.530       .  S
C507        H508   1.112       .  S
C507        C513   1.536       .  S
C507        C512   1.531       .  S
C507        C514   1.539       .  S
C509       C1252   1.374   1_554  D
C510       C1253   1.378   1_554  D
C511        C706   1.486       .  S
C511       C1254   1.377   1_554  D
C512       C1249   1.374       .  D
C513       C1250   1.378       .  D
C514        C720   1.482       .  S
C514       C1251   1.377       .  D
N515        N516   1.322       .  A
N515        C519   1.353       .  A
N515       Cu523   2.107       .  S
N516        C517   1.343       .  A
N516       Cu522   2.061       .  S
C517        C518   1.379       .  A
C517        H520   1.079       .  S
C518        C519   1.391       .  A
C519        H521   1.082       .  S
Cu522       N525   2.061       .  S
Cu523       N533   2.108       .  S
Cu524       N526   2.107       .  S
Cu524       N532   2.109       .  S
N525        N526   1.322       .  A
N525        C529   1.342       .  A
N526        C527   1.353       .  A
C527        C528   1.390       .  A
C527        H530   1.082       .  S
C528        C529   1.378       .  A
C528        C688   1.483       .  S
C529        H531   1.080       .  S
N532        N533   1.327       .  A
N532        C536   1.351       .  A
N533        C534   1.351       .  A
C534        C535   1.388       .  A
C534        H537   1.082       .  S
C535        C536   1.388       .  A
C536        H538   1.082       .  S
N539        N540   1.322       .  A
N539        C543   1.354       .  A
N539       Cu547   2.114       .  S
N540        C541   1.342       .  A
N540       Cu546   2.057       .  S
C541        C542   1.377       .  A
C541        H544   1.080       .  S
C542        C543   1.392       .  A
C542        C691   1.485       .  S
C543        H545   1.082       .  S
Cu546       N549   2.057       .  S
Cu547       N557   2.116       .  S
Cu548       N550   2.111       .  S
Cu548       N556   2.113       .  S
N549        N550   1.321       .  A
N549        C553   1.342       .  A
N550        C551   1.354       .  A
C551        C552   1.393       .  A
C551        H554   1.082       .  S
C552        C553   1.378       .  A
C553        H555   1.079       .  S
N556        N557   1.327       .  A
N556        C560   1.351       .  A
N557        C558   1.353       .  A
C558        C559   1.390       .  A
C558        H561   1.082       .  S
C559        C560   1.388       .  A
C560        H562   1.082       .  S
N563        N564   1.323       .  A
N563        C567   1.345       .  A
N563       Cu571   2.062       .  S
N564        C565   1.344       .  A
N564       Cu570   2.090       .  S
C565        C566   1.383       .  A
C565        H568   1.080       .  S
C566        C567   1.378       .  A
C566        C617   1.474   1_545  S
C567        H569   1.082       .  S
Cu570       N573   2.089       .  S
Cu571       N581   2.060       .  S
Cu572       N574   2.044       .  S
Cu572       N580   2.044       .  S
N573        N574   1.321       .  A
N573        C577   1.346       .  A
N574        C575   1.341       .  A
C575        C576   1.375       .  A
C575        H578   1.082       .  S
C576        C577   1.386       .  A
C577        H579   1.079       .  S
N580        N581   1.320       .  A
N580        C584   1.340       .  A
N581        C582   1.343       .  A
C582        C583   1.381       .  A
C582        H585   1.082       .  S
C583        C632   1.457       .  S
C583        C584   1.378       .  A
C584        H586   1.082       .  S
N587        N588   1.322       .  A
N587        C591   1.348       .  A
N587       Cu595   2.070       .  S
N588        C589   1.341       .  A
N588       Cu594   2.075       .  S
C589        C590   1.381       .  A
C589        H592   1.077       .  S
C590        C591   1.382       .  A
C590        C620   1.476   1_545  S
C591        H593   1.082       .  S
Cu594       N597   2.074       .  S
Cu595       N605   2.071       .  S
Cu596       N598   2.061       .  S
Cu596       N604   2.062       .  S
N597        N598   1.318       .  A
N597        C601   1.341       .  A
N598        C599   1.348       .  A
C599        C600   1.385       .  A
C599        H602   1.082       .  S
C600        C601   1.385       .  A
C601        H603   1.072       .  S
N604        N605   1.323       .  A
N604        C608   1.339       .  A
N605        C606   1.346       .  A
C606        C607   1.383       .  A
C606        H609   1.082       .  S
C607        C633   1.461       .  S
C607        C608   1.378       .  A
C608        H610   1.082       .  S
C611        H612   1.112       .  S
C611        C617   1.533       .  S
C611        C616   1.539       .  S
C611        C615   1.538       .  S
C613        H614   1.112       .  S
C613        C619   1.537       .  S
C613        C618   1.536       .  S
C613        C620   1.533       .  S
C615       C1358   1.378       .  D
C616        C730   1.487       .  S
C616       C1359   1.378       .  D
C617       C1360   1.375       .  D
C618       C1355   1.378   1_554  D
C619        C696   1.482       .  S
C619       C1356   1.378   1_554  D
C620       C1357   1.375   1_554  D
O621       Cu629   1.998       .  S
O621        C631   1.276       .  A
O622       Cu629   1.999       .  S
O622        C632   1.276       .  A
O623       Cu629   2.014       .  S
O623        C633   1.278       .  A
O624       Cu629   2.011       .  S
O624        C634   1.278       .  A
O625       Cu630   1.980       .  S
O625        C634   1.275       .  A
O626       Cu630   1.981       .  S
O626        C633   1.275       .  A
O627       Cu630   1.989       .  S
O627        C632   1.276       .  A
O628       Cu630   1.990       .  S
O628        C631   1.276       .  A
Cu629      Cu630   2.379       .  S
C631        C679   1.456       .  S
C634        C655   1.459       .  S
N635        N636   1.322       .  A
N635        C639   1.348       .  A
N635       Cu643   2.068       .  S
N636        C637   1.338       .  A
N636       Cu642   2.069       .  S
C637        C638   1.379       .  A
C637        H640   1.075       .  S
C638        C639   1.383       .  A
C638        C692   1.474       .  S
C639        H641   1.082       .  S
Cu642       N645   2.070       .  S
Cu643       N653   2.069       .  S
Cu644       N646   2.059       .  S
Cu644       N652   2.061       .  S
N645        N646   1.318       .  A
N645        C649   1.341       .  A
N646        C647   1.346       .  A
C647        C648   1.384       .  A
C647        H650   1.082       .  S
C648        C649   1.385       .  A
C649        H651   1.075       .  S
N652        N653   1.323       .  A
N652        C656   1.338       .  A
N653        C654   1.346       .  A
C654        C655   1.382       .  A
C654        H657   1.082       .  S
C655        C656   1.378       .  A
C656        H658   1.082       .  S
N659        N660   1.324       .  A
N659        C663   1.344       .  A
N659       Cu667   2.056       .  S
N660        C661   1.345       .  A
N660       Cu666   2.096       .  S
C661        C662   1.385       .  A
C661        H664   1.079       .  S
C662        C663   1.376       .  A
C662        C689   1.473       .  S
C663        H665   1.082       .  S
Cu666       N669   2.095       .  S
Cu667       N677   2.056       .  S
Cu668       N670   2.042       .  S
Cu668       N676   2.043       .  S
N669        N670   1.321       .  A
N669        C673   1.347       .  A
N670        C671   1.341       .  A
C671        C672   1.374       .  A
C671        H674   1.082       .  S
C672        C673   1.387       .  A
C673        H675   1.081       .  S
N676        N677   1.320       .  A
N676        C680   1.339       .  A
N677        C678   1.343       .  A
C678        C679   1.381       .  A
C678        H681   1.082       .  S
C679        C680   1.377       .  A
C680        H682   1.082       .  S
C683        H684   1.112       .  S
C683        C689   1.531       .  S
C683        C688   1.540       .  S
C683        C687   1.535       .  S
C685        H686   1.112       .  S
C685        C691   1.535       .  S
C685        C690   1.537       .  S
C685        C692   1.531       .  S
C687       C1430   1.377   1_554  D
C688       C1431   1.378   1_554  D
C689       C1432   1.376   1_554  D
C690       C1427   1.377       .  D
C691       C1428   1.378       .  D
C692       C1429   1.376       .  D
N693        N694   1.322       .  A
N693        C697   1.353       .  A
N693       Cu701   2.103       .  S
N694        C695   1.342       .  A
N694       Cu700   2.065       .  S
C695        C696   1.379       .  A
C695        H698   1.080       .  S
C696        C697   1.389       .  A
C697        H699   1.082       .  S
Cu700       N703   2.066       .  S
Cu701       N711   2.105       .  S
Cu702       N704   2.109       .  S
Cu702       N710   2.112       .  S
N703        N704   1.322       .  A
N703        C707   1.343       .  A
N704        C705   1.353       .  A
C705        C706   1.391       .  A
C705        H708   1.082       .  S
C706        C707   1.380       .  A
C707        H709   1.080       .  S
N710        N711   1.326       .  A
N710        C714   1.352       .  A
N711        C712   1.351       .  A
C712        C713   1.388       .  A
C712        H715   1.082       .  S
C713        C714   1.390       .  A
C714        H716   1.082       .  S
N717        N718   1.322       .  A
N717        C721   1.353       .  A
N717       Cu725   2.102       .  S
N718        C719   1.341       .  A
N718       Cu724   2.063       .  S
C719        C720   1.378       .  A
C719        H722   1.079       .  S
C720        C721   1.390       .  A
C721        H723   1.082       .  S
Cu724       N727   2.065       .  S
Cu725       N735   2.104       .  S
Cu726       N728   2.108       .  S
Cu726       N734   2.110       .  S
N727        N728   1.321       .  A
N727        C731   1.343       .  A
N728        C729   1.354       .  A
C729        C730   1.391       .  A
C729        H732   1.082       .  S
C730        C731   1.380       .  A
C731        H733   1.079       .  S
N734        N735   1.327       .  A
N734        C738   1.351       .  A
N735        C736   1.350       .  A
C736        C737   1.387       .  A
C736        H739   1.082       .  S
C737        C738   1.388       .  A
C738        H740   1.082       .  S
O741       Cu749   2.043   1_455  S
O741        C751   1.282       .  A
O742       Cu749   2.038       .  S
O742        C752   1.281       .  A
O743       Cu749   2.034       .  S
O743        C753   1.280       .  A
O744       Cu749   2.038   1_455  S
O744        C754   1.280       .  A
O745       Cu750   2.040       .  S
O745        C754   1.281       .  A
O746       Cu750   2.036   1_655  S
O746        C753   1.280       .  A
O747       Cu750   2.032   1_655  S
O747        C752   1.279       .  A
O748       Cu750   2.031       .  S
O748        C751   1.279       .  A
Cu749      Cu750   2.368   1_655  S
C751        C905   1.490       .  S
C752       C1107   1.488       .  S
C753       C1083   1.488       .  S
C754        C929   1.492       .  S
N755        N756   1.323       .  A
N755        C759   1.347       .  A
N755       Cu763   2.068       .  S
N756        C757   1.342       .  A
N756       Cu762   2.085       .  S
C757        C758   1.383       .  A
C757        H760   1.078       .  S
C758        C759   1.381       .  A
C758        C809   1.477   1_655  S
C759        H761   1.082       .  S
Cu762       N765   2.084       .  S
Cu763       N773   2.068       .  S
Cu764       N766   2.057       .  S
Cu764       N772   2.060       .  S
N765        N766   1.320       .  A
N765        C769   1.343       .  A
N766        C767   1.346       .  A
C767        C768   1.382       .  A
C767        H770   1.082       .  S
C768        C769   1.386       .  A
C768       C1180   1.482       .  S
C769        H771   1.077       .  S
N772        N773   1.322       .  A
N772        C776   1.339       .  A
N773        C774   1.347       .  A
C774        C775   1.383       .  A
C774        H777   1.082       .  S
C775        C826   1.462       .  S
C775        C776   1.380       .  A
C776        H778   1.082       .  S
N779        N780   1.323       .  A
N779        C783   1.344       .  A
N779       Cu787   2.051       .  S
N780        C781   1.343       .  A
N780       Cu786   2.086       .  S
C781        C782   1.383       .  A
C781        H784   1.079       .  S
C782        C783   1.376       .  A
C782        C812   1.470   1_655  S
C783        H785   1.082       .  S
Cu786       N789   2.085       .  S
Cu787       N797   2.050       .  S
Cu788       N790   2.049       .  S
Cu788       N796   2.050       .  S
N789        N790   1.321       .  A
N789        C793   1.345       .  A
N790        C791   1.342       .  A
C791        C792   1.376       .  A
C791        H794   1.082       .  S
C792        C793   1.385       .  A
C792       C1177   1.472       .  S
C793        H795   1.080       .  S
N796        N797   1.321       .  A
N796        C800   1.340       .  A
N797        C798   1.341       .  A
C798        C799   1.379       .  A
C798        H801   1.082       .  S
C799        C824   1.455       .  S
C799        C800   1.378       .  A
C800        H802   1.082       .  S
C803        H804   1.112       .  S
C803        C809   1.532       .  S
C803        C808   1.538       .  S
C803        C807   1.537       .  S
C805        H806   1.112       .  S
C805        C811   1.542       .  S
C805        C810   1.537       .  S
C805        C812   1.532       .  S
C807       C1316   1.472       .  S
C808        C922   1.491       .  S
C810       C1340   1.485       .  S
C811        C888   1.486       .  S
O813       Cu821   1.995       .  S
O813        C823   1.275       .  A
O814       Cu821   1.992       .  S
O814        C824   1.275       .  A
O815       Cu821   2.019       .  S
O815        C825   1.279       .  A
O816       Cu821   2.019       .  S
O816        C826   1.279       .  A
O817       Cu822   1.979       .  S
O817        C826   1.274       .  A
O818       Cu822   1.979       .  S
O818        C825   1.274       .  A
O819       Cu822   1.991       .  S
O819        C824   1.276       .  A
O820       Cu822   1.992       .  S
O820        C823   1.277       .  A
Cu821      Cu822   2.379       .  S
C823        C847   1.457       .  S
C825        C871   1.462       .  S
N827        N828   1.324       .  A
N827        C831   1.346       .  A
N827       Cu835   2.066       .  S
N828        C829   1.342       .  A
N828       Cu834   2.081       .  S
C829        C830   1.380       .  A
C829        H832   1.079       .  S
C830        C831   1.380       .  A
C830        C884   1.472       .  S
C831        H833   1.082       .  S
Cu834       N837   2.080       .  S
Cu835       N845   2.065       .  S
Cu836       N838   2.045       .  S
Cu836       N844   2.045       .  S
N837        N838   1.320       .  A
N837        C841   1.345       .  A
N838        C839   1.342       .  A
C839        C840   1.377       .  A
C839        H842   1.082       .  S
C840        C841   1.385       .  A
C840       C1430   1.472       .  S
C841        H843   1.079       .  S
N844        N845   1.321       .  A
N844        C848   1.338       .  A
N845        C846   1.345       .  A
C846        C847   1.382       .  A
C846        H849   1.082       .  S
C847        C848   1.375       .  A
C848        H850   1.082       .  S
N851        N852   1.323       .  A
N851        C855   1.347       .  A
N851       Cu859   2.072       .  S
N852        C853   1.342       .  A
N852       Cu858   2.080       .  S
C853        C854   1.382       .  A
C853        H856   1.079       .  S
C854        C855   1.381       .  A
C854        C881   1.477       .  S
C855        H857   1.082       .  S
Cu858       N861   2.079       .  S
Cu859       N869   2.072       .  S
Cu860       N862   2.058       .  S
Cu860       N868   2.060       .  S
N861        N862   1.319       .  A
N861        C865   1.342       .  A
N862        C863   1.346       .  A
C863        C864   1.382       .  A
C863        H866   1.082       .  S
C864        C865   1.385       .  A
C864       C1427   1.480       .  S
C865        H867   1.076       .  S
N868        N869   1.322       .  A
N868        C872   1.339       .  A
N869        C870   1.347       .  A
C870        C871   1.383       .  A
C870        H873   1.082       .  S
C871        C872   1.380       .  A
C872        H874   1.082       .  S
C875        H876   1.112       .  S
C875        C881   1.532       .  S
C875        C880   1.534       .  S
C875        C879   1.534       .  S
C877        H878   1.112       .  S
C877        C883   1.539       .  S
C877        C882   1.539       .  S
C877        C884   1.533       .  S
C879       C1210   1.471       .  S
C880       C1076   1.484       .  S
C882       C1234   1.486       .  S
C883       C1090   1.481       .  S
N885        N886   1.321       .  A
N885        C889   1.354       .  A
N885       Cu893   2.103       .  S
N886        C887   1.342       .  A
N886       Cu892   2.066       .  S
C887        C888   1.380       .  A
C887        H890   1.079       .  S
C888        C889   1.391       .  A
C889        H891   1.082       .  S
Cu892       N895   2.066       .  S
Cu893       N903   2.105       .  S
Cu894       N896   2.122       .  S
Cu894       N902   2.124       .  S
N895        N896   1.321       .  A
N895        C899   1.342       .  A
N896        C897   1.357       .  A
C897        C898   1.396       .  A
C897        H900   1.082       .  S
C898        C899   1.380       .  A
C898       C1058   1.493       .  S
C899        H901   1.078       .  S
N902        N903   1.328       .  A
N902        C906   1.352       .  A
N903        C904   1.351       .  A
C904        C905   1.387       .  A
C904        H907   1.082       .  S
C905        C906   1.390       .  A
C906        H908   1.082       .  S
N909        N910   1.321       .  A
N909        C913   1.354       .  A
N909       Cu917   2.106       .  S
N910        C911   1.343       .  A
N910       Cu916   2.069       .  S
C911        C912   1.380       .  A
C911        H914   1.079       .  S
C912        C913   1.391       .  A
C912       C1061   1.488       .  S
C913        H915   1.082       .  S
Cu916       N919   2.069       .  S
Cu917       N927   2.108       .  S
Cu918       N920   2.119       .  S
Cu918       N926   2.121       .  S
N919        N920   1.322       .  A
N919        C923   1.344       .  A
N920        C921   1.355       .  A
C921        C922   1.393       .  A
C921        H924   1.082       .  S
C922        C923   1.380       .  A
C923        H925   1.080       .  S
N926        N927   1.327       .  A
N926        C930   1.353       .  A
N927        C928   1.351       .  A
C928        C929   1.387       .  A
C928        H931   1.082       .  S
C929        C930   1.391       .  A
C930        H932   1.082       .  S
N933        N934   1.323       .  A
N933        C937   1.344       .  A
N933       Cu941   2.054       .  S
N934        C935   1.346       .  A
N934       Cu940   2.097       .  S
C935        C936   1.386       .  A
C935        H938   1.079       .  S
C936        C937   1.376       .  A
C936        C987   1.476   1_455  S
C937        H939   1.082       .  S
Cu940       N943   2.096       .  S
Cu941       N951   2.053       .  S
Cu942       N944   2.044       .  S
Cu942       N950   2.043       .  S
N943        N944   1.322       .  A
N943        C947   1.347       .  A
N944        C945   1.341       .  A
C945        C946   1.375       .  A
C945        H948   1.082       .  S
C946        C947   1.387       .  A
C946       C1355   1.473       .  S
C947        H949   1.081       .  S
N950        N951   1.320       .  A
N950        C954   1.338       .  A
N951        C952   1.343       .  A
C952        C953   1.380       .  A
C952        H955   1.082       .  S
C953       C1001   1.454       .  S
C953        C954   1.377       .  A
C954        H956   1.082       .  S
N957        N958   1.321       .  A
N957        C961   1.346       .  A
N957       Cu965   2.059       .  S
N958        C959   1.339       .  A
N958       Cu964   2.067       .  S
C959        C960   1.380       .  A
C959        H962   1.073       .  S
C960        C961   1.381       .  A
C960        C990   1.472   1_455  S
C961        H963   1.082       .  S
Cu964       N967   2.066       .  S
Cu965       N975   2.060       .  S
Cu966       N968   2.065       .  S
Cu966       N974   2.066       .  S
N967        N968   1.318       .  A
N967        C971   1.340       .  A
N968        C969   1.348       .  A
C969        C970   1.385       .  A
C969        H972   1.082       .  S
C970        C971   1.383       .  A
C970       C1358   1.482       .  S
C971        H973   1.076       .  S
N974        N975   1.323       .  A
N974        C978   1.338       .  A
N975        C976   1.346       .  A
C976        C977   1.380       .  A
C976        H979   1.082       .  S
C977       C1003   1.459       .  S
C977        C978   1.379       .  A
C978        H980   1.082       .  S
C981        H982   1.112       .  S
C981        C987   1.530       .  S
C981        C986   1.536       .  S
C981        C985   1.535       .  S
C983        H984   1.112       .  S
C983        C989   1.539       .  S
C983        C988   1.535       .  S
C983        C990   1.534       .  S
C985       C1138   1.468       .  S
C986       C1100   1.485       .  S
C988       C1162   1.483       .  S
C989       C1066   1.485       .  S
O991       Cu999   1.986       .  S
O991       C1001   1.276       .  A
O992       Cu999   1.989       .  S
O992       C1002   1.276       .  A
O993       Cu999   1.972       .  S
O993       C1003   1.273       .  A
O994       Cu999   1.967       .  S
O994       C1004   1.273       .  A
O995      Cu1000   2.014       .  S
O995       C1004   1.279       .  A
O996      Cu1000   2.018       .  S
O996       C1003   1.279       .  A
O997      Cu1000   2.002       .  S
O997       C1002   1.276       .  A
O998      Cu1000   1.997       .  S
O998       C1001   1.276       .  A
Cu999     Cu1000   2.380       .  S
C1002      C1025   1.458       .  S
C1004      C1049   1.456       .  S
N1005      N1006   1.323       .  A
N1005      C1009   1.347       .  A
N1005     Cu1013   2.069       .  S
N1006      C1007   1.343       .  A
N1006     Cu1012   2.084       .  S
C1007      C1008   1.383       .  A
C1007      H1010   1.078       .  S
C1008      C1009   1.381       .  A
C1008      C1059   1.477       .  S
C1009      H1011   1.082       .  S
Cu1012     N1015   2.082       .  S
Cu1013     N1023   2.069       .  S
Cu1014     N1016   2.046       .  S
Cu1014     N1022   2.047       .  S
N1015      N1016   1.320       .  A
N1015      C1019   1.343       .  A
N1016      C1017   1.343       .  A
C1017      C1018   1.378       .  A
C1017      H1020   1.082       .  S
C1018      C1019   1.384       .  A
C1018      C1250   1.474       .  S
C1019      H1021   1.078       .  S
N1022      N1023   1.322       .  A
N1022      C1026   1.339       .  A
N1023      C1024   1.345       .  A
C1024      C1025   1.383       .  A
C1024      H1027   1.082       .  S
C1025      C1026   1.376       .  A
C1026      H1028   1.082       .  S
N1029      N1030   1.323       .  A
N1029      C1033   1.345       .  A
N1029     Cu1037   2.055       .  S
N1030      C1031   1.342       .  A
N1030     Cu1036   2.089       .  S
C1031      C1032   1.384       .  A
C1031      H1034   1.077       .  S
C1032      C1033   1.378       .  A
C1032      C1062   1.475       .  S
C1033      H1035   1.082       .  S
Cu1036     N1039   2.088       .  S
Cu1037     N1047   2.054       .  S
Cu1038     N1040   2.053       .  S
Cu1038     N1046   2.055       .  S
N1039      N1040   1.320       .  A
N1039      C1043   1.344       .  A
N1040      C1041   1.344       .  A
C1041      C1042   1.380       .  A
C1041      H1044   1.082       .  S
C1042      C1043   1.387       .  A
C1042      C1253   1.479       .  S
C1043      H1045   1.079       .  S
N1046      N1047   1.321       .  A
N1046      C1050   1.338       .  A
N1047      C1048   1.344       .  A
C1048      C1049   1.380       .  A
C1048      H1051   1.082       .  S
C1049      C1050   1.379       .  A
C1050      H1052   1.082       .  S
C1053      H1054   1.112       .  S
C1053      C1059   1.534       .  S
C1053      C1058   1.541       .  S
C1053      C1057   1.539       .  S
C1055      H1056   1.112       .  S
C1055      C1061   1.541       .  S
C1055      C1060   1.535       .  S
C1055      C1062   1.533       .  S
C1057      C1412   1.472       .  S
C1060      C1388   1.482       .  S
N1063      N1064   1.322       .  A
N1063      C1067   1.354       .  A
N1063     Cu1071   2.110       .  S
N1064      C1065   1.342       .  A
N1064     Cu1070   2.067       .  S
C1065      C1066   1.379       .  A
C1065      H1068   1.080       .  S
C1066      C1067   1.391       .  A
C1067      H1069   1.082       .  S
Cu1070     N1073   2.066       .  S
Cu1071     N1081   2.112       .  S
Cu1072     N1074   2.101       .  S
Cu1072     N1080   2.104       .  S
N1073      N1074   1.322       .  A
N1073      C1077   1.343       .  A
N1074      C1075   1.352       .  A
C1075      C1076   1.389       .  A
C1075      H1078   1.082       .  S
C1076      C1077   1.380       .  A
C1077      H1079   1.080       .  S
N1080      N1081   1.326       .  A
N1080      C1084   1.350       .  A
N1081      C1082   1.352       .  A
C1082      C1083   1.389       .  A
C1082      H1085   1.082       .  S
C1083      C1084   1.388       .  A
C1084      H1086   1.082       .  S
N1087      N1088   1.320       .  A
N1087      C1091   1.353       .  A
N1087     Cu1095   2.104       .  S
N1088      C1089   1.339       .  A
N1088     Cu1094   2.051       .  S
C1089      C1090   1.377       .  A
C1089      H1092   1.079       .  S
C1090      C1091   1.392       .  A
C1091      H1093   1.082       .  S
Cu1094     N1097   2.050       .  S
Cu1095     N1105   2.107       .  S
Cu1096     N1098   2.114       .  S
Cu1096     N1104   2.117       .  S
N1097      N1098   1.321       .  A
N1097      C1101   1.340       .  A
N1098      C1099   1.355       .  A
C1099      C1100   1.394       .  A
C1099      H1102   1.082       .  S
C1100      C1101   1.376       .  A
C1101      H1103   1.079       .  S
N1104      N1105   1.328       .  A
N1104      C1108   1.352       .  A
N1105      C1106   1.351       .  A
C1106      C1107   1.387       .  A
C1106      H1109   1.082       .  S
C1107      C1108   1.389       .  A
C1108      H1110   1.082       .  S
O1111     Cu1119   2.032   1_545  S
O1111      C1121   1.280       .  A
O1112     Cu1119   2.031       .  S
O1112      C1122   1.280       .  A
O1113     Cu1119   2.039       .  S
O1113      C1123   1.281       .  A
O1114     Cu1119   2.038   1_545  S
O1114      C1124   1.281       .  A
O1115     Cu1120   2.038       .  S
O1115      C1124   1.280       .  A
O1116     Cu1120   2.036   1_565  S
O1116      C1123   1.280       .  A
O1117     Cu1120   2.035   1_565  S
O1117      C1122   1.280       .  A
O1118     Cu1120   2.036       .  S
O1118      C1121   1.281       .  A
Cu1119    Cu1120   2.368   1_565  S
C1121      C1275   1.488       .  S
C1122      C1477   1.487       .  S
C1123      C1453   1.490       .  S
C1124      C1299   1.491       .  S
N1125      N1126   1.323       .  A
N1125      C1129   1.344       .  A
N1125     Cu1133   2.056       .  S
N1126      C1127   1.343       .  A
N1126     Cu1132   2.081       .  S
C1127      C1128   1.382       .  A
C1127      H1130   1.080       .  S
C1128      C1129   1.377       .  A
C1128      C1181   1.470   1_565  S
C1129      H1131   1.082       .  S
Cu1132     N1135   2.080       .  S
Cu1133     N1143   2.055       .  S
Cu1134     N1136   2.048       .  S
Cu1134     N1142   2.047       .  S
N1135      N1136   1.322       .  A
N1135      C1139   1.345       .  A
N1136      C1137   1.341       .  A
C1137      C1138   1.375       .  A
C1137      H1140   1.082       .  S
C1138      C1139   1.383       .  A
C1139      H1141   1.080       .  S
N1142      N1143   1.321       .  A
N1142      C1146   1.340       .  A
N1143      C1144   1.342       .  A
C1144      C1145   1.380       .  A
C1144      H1147   1.082       .  S
C1145      C1193   1.456       .  S
C1145      C1146   1.377       .  A
C1146      H1148   1.082       .  S
N1149      N1150   1.321       .  A
N1149      C1153   1.348       .  A
N1149     Cu1157   2.071       .  S
N1150      C1151   1.339       .  A
N1150     Cu1156   2.068       .  S
C1151      C1152   1.380       .  A
C1151      H1154   1.077       .  S
C1152      C1153   1.383       .  A
C1152      C1178   1.475   1_565  S
C1153      H1155   1.082       .  S
Cu1156     N1159   2.067       .  S
Cu1157     N1167   2.072       .  S
Cu1158     N1160   2.073       .  S
Cu1158     N1166   2.075       .  S
N1159      N1160   1.319       .  A
N1159      C1163   1.341       .  A
N1160      C1161   1.349       .  A
C1161      C1162   1.386       .  A
C1161      H1164   1.082       .  S
C1162      C1163   1.384       .  A
C1163      H1165   1.075       .  S
N1166      N1167   1.324       .  A
N1166      C1170   1.340       .  A
N1167      C1168   1.347       .  A
C1168      C1169   1.382       .  A
C1168      H1171   1.082       .  S
C1169      C1196   1.464       .  S
C1169      C1170   1.382       .  A
C1170      H1172   1.082       .  S
C1173      H1174   1.112       .  S
C1173      C1179   1.535       .  S
C1173      C1178   1.531       .  S
C1173      C1177   1.535       .  S
C1175      H1176   1.112       .  S
C1175      C1181   1.531       .  S
C1175      C1180   1.539       .  S
C1175      C1182   1.540       .  S
C1179      C1258   1.484       .  S
C1182      C1292   1.486       .  S
O1183     Cu1191   1.991       .  S
O1183      C1193   1.275       .  A
O1184     Cu1191   1.993       .  S
O1184      C1194   1.275       .  A
O1185     Cu1191   2.025       .  S
O1185      C1195   1.280       .  A
O1186     Cu1191   2.026       .  S
O1186      C1196   1.280       .  A
O1187     Cu1192   1.975       .  S
O1187      C1196   1.273       .  A
O1188     Cu1192   1.970       .  S
O1188      C1195   1.272       .  A
O1189     Cu1192   1.994       .  S
O1189      C1194   1.277       .  A
O1190     Cu1192   1.995       .  S
O1190      C1193   1.277       .  A
Cu1191    Cu1192   2.378       .  S
C1194      C1217   1.457       .  S
C1195      C1241   1.461       .  S
N1197      N1198   1.323       .  A
N1197      C1201   1.345       .  A
N1197     Cu1205   2.064       .  S
N1198      C1199   1.342       .  A
N1198     Cu1204   2.076       .  S
C1199      C1200   1.380       .  A
C1199      H1202   1.080       .  S
C1200      C1201   1.379       .  A
C1200      C1249   1.470       .  S
C1201      H1203   1.082       .  S
Cu1204     N1207   2.076       .  S
Cu1205     N1215   2.062       .  S
Cu1206     N1208   2.050       .  S
Cu1206     N1214   2.050       .  S
N1207      N1208   1.320       .  A
N1207      C1211   1.345       .  A
N1208      C1209   1.342       .  A
C1209      C1210   1.378       .  A
C1209      H1212   1.082       .  S
C1210      C1211   1.384       .  A
C1211      H1213   1.080       .  S
N1214      N1215   1.321       .  A
N1214      C1218   1.339       .  A
N1215      C1216   1.344       .  A
C1216      C1217   1.381       .  A
C1216      H1219   1.082       .  S
C1217      C1218   1.376       .  A
C1218      H1220   1.082       .  S
N1221      N1222   1.321       .  A
N1221      C1225   1.346       .  A
N1221     Cu1229   2.056       .  S
N1222      C1223   1.341       .  A
N1222     Cu1228   2.075       .  S
C1223      C1224   1.383       .  A
C1223      H1226   1.077       .  S
C1224      C1225   1.380       .  A
C1224      C1252   1.473       .  S
C1225      H1227   1.082       .  S
Cu1228     N1231   2.074       .  S
Cu1229     N1239   2.057       .  S
Cu1230     N1232   2.077       .  S
Cu1230     N1238   2.079       .  S
N1231      N1232   1.319       .  A
N1231      C1235   1.341       .  A
N1232      C1233   1.351       .  A
C1233      C1234   1.388       .  A
C1233      H1236   1.082       .  S
C1234      C1235   1.383       .  A
C1235      H1237   1.075       .  S
N1238      N1239   1.323       .  A
N1238      C1242   1.339       .  A
N1239      C1240   1.346       .  A
C1240      C1241   1.380       .  A
C1240      H1243   1.082       .  S
C1241      C1242   1.382       .  A
C1242      H1244   1.082       .  S
C1245      H1246   1.112       .  S
C1245      C1251   1.535       .  S
C1245      C1250   1.538       .  S
C1245      C1249   1.530       .  S
C1247      H1248   1.112       .  S
C1247      C1253   1.536       .  S
C1247      C1252   1.531       .  S
C1247      C1254   1.539       .  S
C1251      C1446   1.486       .  S
C1254      C1460   1.482       .  S
N1255      N1256   1.322       .  A
N1255      C1259   1.353       .  A
N1255     Cu1263   2.107       .  S
N1256      C1257   1.343       .  A
N1256     Cu1262   2.061       .  S
C1257      C1258   1.379       .  A
C1257      H1260   1.079       .  S
C1258      C1259   1.391       .  A
C1259      H1261   1.082       .  S
Cu1262     N1265   2.061       .  S
Cu1263     N1273   2.108       .  S
Cu1264     N1266   2.107       .  S
Cu1264     N1272   2.109       .  S
N1265      N1266   1.322       .  A
N1265      C1269   1.342       .  A
N1266      C1267   1.353       .  A
C1267      C1268   1.390       .  A
C1267      H1270   1.082       .  S
C1268      C1269   1.378       .  A
C1268      C1428   1.483       .  S
C1269      H1271   1.080       .  S
N1272      N1273   1.327       .  A
N1272      C1276   1.351       .  A
N1273      C1274   1.351       .  A
C1274      C1275   1.388       .  A
C1274      H1277   1.082       .  S
C1275      C1276   1.388       .  A
C1276      H1278   1.082       .  S
N1279      N1280   1.322       .  A
N1279      C1283   1.354       .  A
N1279     Cu1287   2.114       .  S
N1280      C1281   1.342       .  A
N1280     Cu1286   2.057       .  S
C1281      C1282   1.377       .  A
C1281      H1284   1.080       .  S
C1282      C1283   1.392       .  A
C1282      C1431   1.485       .  S
C1283      H1285   1.082       .  S
Cu1286     N1289   2.057       .  S
Cu1287     N1297   2.116       .  S
Cu1288     N1290   2.111       .  S
Cu1288     N1296   2.113       .  S
N1289      N1290   1.321       .  A
N1289      C1293   1.342       .  A
N1290      C1291   1.354       .  A
C1291      C1292   1.393       .  A
C1291      H1294   1.082       .  S
C1292      C1293   1.378       .  A
C1293      H1295   1.079       .  S
N1296      N1297   1.327       .  A
N1296      C1300   1.351       .  A
N1297      C1298   1.353       .  A
C1298      C1299   1.390       .  A
C1298      H1301   1.082       .  S
C1299      C1300   1.388       .  A
C1300      H1302   1.082       .  S
N1303      N1304   1.323       .  A
N1303      C1307   1.345       .  A
N1303     Cu1311   2.062       .  S
N1304      C1305   1.344       .  A
N1304     Cu1310   2.090       .  S
C1305      C1306   1.383       .  A
C1305      H1308   1.080       .  S
C1306      C1307   1.378       .  A
C1306      C1357   1.474   1_545  S
C1307      H1309   1.082       .  S
Cu1310     N1313   2.089       .  S
Cu1311     N1321   2.060       .  S
Cu1312     N1314   2.044       .  S
Cu1312     N1320   2.044       .  S
N1313      N1314   1.321       .  A
N1313      C1317   1.346       .  A
N1314      C1315   1.341       .  A
C1315      C1316   1.375       .  A
C1315      H1318   1.082       .  S
C1316      C1317   1.386       .  A
C1317      H1319   1.079       .  S
N1320      N1321   1.320       .  A
N1320      C1324   1.340       .  A
N1321      C1322   1.343       .  A
C1322      C1323   1.381       .  A
C1322      H1325   1.082       .  S
C1323      C1372   1.457       .  S
C1323      C1324   1.378       .  A
C1324      H1326   1.082       .  S
N1327      N1328   1.322       .  A
N1327      C1331   1.348       .  A
N1327     Cu1335   2.070       .  S
N1328      C1329   1.341       .  A
N1328     Cu1334   2.075       .  S
C1329      C1330   1.381       .  A
C1329      H1332   1.077       .  S
C1330      C1331   1.382       .  A
C1330      C1360   1.476   1_545  S
C1331      H1333   1.082       .  S
Cu1334     N1337   2.074       .  S
Cu1335     N1345   2.071       .  S
Cu1336     N1338   2.061       .  S
Cu1336     N1344   2.062       .  S
N1337      N1338   1.318       .  A
N1337      C1341   1.341       .  A
N1338      C1339   1.348       .  A
C1339      C1340   1.385       .  A
C1339      H1342   1.082       .  S
C1340      C1341   1.385       .  A
C1341      H1343   1.072       .  S
N1344      N1345   1.323       .  A
N1344      C1348   1.339       .  A
N1345      C1346   1.346       .  A
C1346      C1347   1.383       .  A
C1346      H1349   1.082       .  S
C1347      C1373   1.461       .  S
C1347      C1348   1.378       .  A
C1348      H1350   1.082       .  S
C1351      H1352   1.112       .  S
C1351      C1357   1.533       .  S
C1351      C1356   1.539       .  S
C1351      C1355   1.538       .  S
C1353      H1354   1.112       .  S
C1353      C1359   1.537       .  S
C1353      C1358   1.536       .  S
C1353      C1360   1.533       .  S
C1356      C1470   1.487       .  S
C1359      C1436   1.482       .  S
O1361     Cu1369   1.998       .  S
O1361      C1371   1.276       .  A
O1362     Cu1369   1.999       .  S
O1362      C1372   1.276       .  A
O1363     Cu1369   2.014       .  S
O1363      C1373   1.278       .  A
O1364     Cu1369   2.011       .  S
O1364      C1374   1.278       .  A
O1365     Cu1370   1.980       .  S
O1365      C1374   1.275       .  A
O1366     Cu1370   1.981       .  S
O1366      C1373   1.275       .  A
O1367     Cu1370   1.989       .  S
O1367      C1372   1.276       .  A
O1368     Cu1370   1.990       .  S
O1368      C1371   1.276       .  A
Cu1369    Cu1370   2.379       .  S
C1371      C1419   1.456       .  S
C1374      C1395   1.459       .  S
N1375      N1376   1.322       .  A
N1375      C1379   1.348       .  A
N1375     Cu1383   2.068       .  S
N1376      C1377   1.338       .  A
N1376     Cu1382   2.069       .  S
C1377      C1378   1.379       .  A
C1377      H1380   1.075       .  S
C1378      C1379   1.383       .  A
C1378      C1432   1.474       .  S
C1379      H1381   1.082       .  S
Cu1382     N1385   2.070       .  S
Cu1383     N1393   2.069       .  S
Cu1384     N1386   2.059       .  S
Cu1384     N1392   2.061       .  S
N1385      N1386   1.318       .  A
N1385      C1389   1.341       .  A
N1386      C1387   1.346       .  A
C1387      C1388   1.384       .  A
C1387      H1390   1.082       .  S
C1388      C1389   1.385       .  A
C1389      H1391   1.075       .  S
N1392      N1393   1.323       .  A
N1392      C1396   1.338       .  A
N1393      C1394   1.346       .  A
C1394      C1395   1.382       .  A
C1394      H1397   1.082       .  S
C1395      C1396   1.378       .  A
C1396      H1398   1.082       .  S
N1399      N1400   1.324       .  A
N1399      C1403   1.344       .  A
N1399     Cu1407   2.056       .  S
N1400      C1401   1.345       .  A
N1400     Cu1406   2.096       .  S
C1401      C1402   1.385       .  A
C1401      H1404   1.079       .  S
C1402      C1403   1.376       .  A
C1402      C1429   1.473       .  S
C1403      H1405   1.082       .  S
Cu1406     N1409   2.095       .  S
Cu1407     N1417   2.056       .  S
Cu1408     N1410   2.042       .  S
Cu1408     N1416   2.043       .  S
N1409      N1410   1.321       .  A
N1409      C1413   1.347       .  A
N1410      C1411   1.341       .  A
C1411      C1412   1.374       .  A
C1411      H1414   1.082       .  S
C1412      C1413   1.387       .  A
C1413      H1415   1.081       .  S
N1416      N1417   1.320       .  A
N1416      C1420   1.339       .  A
N1417      C1418   1.343       .  A
C1418      C1419   1.381       .  A
C1418      H1421   1.082       .  S
C1419      C1420   1.377       .  A
C1420      H1422   1.082       .  S
C1423      H1424   1.112       .  S
C1423      C1429   1.531       .  S
C1423      C1428   1.540       .  S
C1423      C1427   1.535       .  S
C1425      H1426   1.112       .  S
C1425      C1431   1.535       .  S
C1425      C1430   1.537       .  S
C1425      C1432   1.531       .  S
N1433      N1434   1.322       .  A
N1433      C1437   1.353       .  A
N1433     Cu1441   2.103       .  S
N1434      C1435   1.342       .  A
N1434     Cu1440   2.065       .  S
C1435      C1436   1.379       .  A
C1435      H1438   1.080       .  S
C1436      C1437   1.389       .  A
C1437      H1439   1.082       .  S
Cu1440     N1443   2.066       .  S
Cu1441     N1451   2.105       .  S
Cu1442     N1444   2.109       .  S
Cu1442     N1450   2.112       .  S
N1443      N1444   1.322       .  A
N1443      C1447   1.343       .  A
N1444      C1445   1.353       .  A
C1445      C1446   1.391       .  A
C1445      H1448   1.082       .  S
C1446      C1447   1.380       .  A
C1447      H1449   1.080       .  S
N1450      N1451   1.326       .  A
N1450      C1454   1.352       .  A
N1451      C1452   1.351       .  A
C1452      C1453   1.388       .  A
C1452      H1455   1.082       .  S
C1453      C1454   1.390       .  A
C1454      H1456   1.082       .  S
N1457      N1458   1.322       .  A
N1457      C1461   1.353       .  A
N1457     Cu1465   2.102       .  S
N1458      C1459   1.341       .  A
N1458     Cu1464   2.063       .  S
C1459      C1460   1.378       .  A
C1459      H1462   1.079       .  S
C1460      C1461   1.390       .  A
C1461      H1463   1.082       .  S
Cu1464     N1467   2.065       .  S
Cu1465     N1475   2.104       .  S
Cu1466     N1468   2.108       .  S
Cu1466     N1474   2.110       .  S
N1467      N1468   1.321       .  A
N1467      C1471   1.343       .  A
N1468      C1469   1.354       .  A
C1469      C1470   1.391       .  A
C1469      H1472   1.082       .  S
C1470      C1471   1.380       .  A
C1471      H1473   1.079       .  S
N1474      N1475   1.327       .  A
N1474      C1478   1.351       .  A
N1475      C1476   1.350       .  A
C1476      C1477   1.387       .  A
C1476      H1479   1.082       .  S
C1477      C1478   1.388       .  A
C1478      H1480   1.082       .  S
