geometry optimzed in LAMMPS
_audit_creation_date              2020-12-01 
_audit_creation_method            'lammps2cif' 
_symmetry_space_group_name_H-M    'P1' 
_symmetry_Int_Tables_number       1 
_symmetry_cell_setting            triclinic 
loop_ 
_symmetry_equiv_pos_as_xyz 
  x,y,z 
_cell_length_a                    30.92439241 
_cell_length_b                    30.94922541990807 
_cell_length_c                    82.35296372358152 
_cell_angle_alpha                 89.80753672939633 
_cell_angle_beta                  90.20936689078296 
_cell_angle_gamma                 120.02687608684927 
loop_ 
_atom_site_label 
_atom_site_type_symbol 
_atom_site_fract_x 
_atom_site_fract_y 
_atom_site_fract_z 
_atom_site_charge 
Zr1        Zr  0.89999809  0.15968927  0.55891862     2.17500
O2          O  0.87457244  0.10165801  0.53632545    -0.51300
O3          O  0.98432998  0.17411176  0.56322616    -0.74500
O4          O  0.94167717  0.20830266  0.53468562    -0.81300
O5          O  0.83717626  0.04992640  0.58762449    -0.83000
O6          O  0.93614868  0.27888164  0.53503746    -0.78600
O7          O  0.88298021  0.07526126  0.56436535    -0.90300
O8          O  0.01696597  0.22562709  0.58501282    -0.76200
O9          O  0.94272278  0.24589182  0.56572895    -0.85700
O10         O  0.91393611  0.16310850  0.58741850    -0.85400
O11         O  0.84492404  0.19017687  0.55111062    -0.72200
O12         O  0.81863498  0.11445289  0.57095009    -0.84300
Zr13       Zr  0.82196969  0.23637561  0.59994366     2.26400
Zr14       Zr  0.88776318  0.27647083  0.55884295     2.06300
Zr15       Zr  0.83317582  0.11939574  0.59945838     2.10000
Zr16       Zr  0.95719243  0.24953224  0.59405925     1.78800
O17         O  0.75120760  0.04812847  0.60530676    -0.93100
O18         O  0.02765011  0.32683340  0.58391393    -0.40900
O19         O  0.87721384  0.20587617  0.60690139    -0.77500
O20         O  0.90329793  0.28213249  0.58750620    -0.96200
O21         O  0.80720285  0.23277670  0.57138884    -0.89500
O22         O  0.77762104  0.14995172  0.59299483    -0.92400
C23         C  0.01906187  0.19825317  0.57371681     1.01400
C24         C  0.85810759  0.04263756  0.57534849     1.14300
C25         C  0.95106467  0.25060457  0.52868455     1.05100
O26         O  0.95827914  0.36087560  0.55670816    -0.94500
O27         O  0.87179735  0.34153995  0.56862118    -0.90300
O28         O  0.84083944  0.32157392  0.59425187    -0.83400
C29         C  0.85640389  0.35101122  0.58191615     1.11700
O30         O  0.73309109  0.08998844  0.54129525    -0.96500
Zr31       Zr  0.76492593  0.14685943  0.56430403     1.88900
O32         O  0.73340966  0.21106762  0.59757922    -0.73100
O33         O  0.84433317  0.28675912  0.53572863    -0.52400
O34         O  0.74025826  0.17847757  0.54105965    -0.97100
O35         O  0.69778913  0.06232463  0.57012173    -0.54300
O36         O  0.70106158  0.16166868  0.57539113    -0.73700
C37         C  0.69779174  0.18592354  0.58744960     0.98700
O38         O  0.81959390  0.29064260  0.62093004    -0.62500
O39         O  0.87289607  0.09029029  0.61887884    -0.57300
O40         O  0.81909585  0.20527062  0.62777143    -0.94000
O41         O  0.82056873  0.13257107  0.62727560    -0.92400
O42         O  0.98172607  0.22651957  0.61929544    -0.92700
O43         O  0.99225093  0.31484110  0.61460157    -0.91500
C44         C  0.81886527  0.16777073  0.63474255     1.17500
H45         H  0.93255289  0.14697177  0.59050385     0.33500
H46         H  0.91994023  0.31663395  0.59083167     0.44300
H47         H  0.74678952  0.13209992  0.59896641     0.37800
H48         H  0.84011186  0.18725869  0.53948412     0.34300
H49         H  0.05678914  0.33111011  0.59026293     0.26100
H50         H  0.84026554  0.26093147  0.52783233     0.32100
H51         H  0.70508852  0.16900524  0.54313276     0.38000
H52         H  0.95372405  0.19274341  0.62183217     0.32400
H53         H  0.84716402  0.05546923  0.62143440     0.31300
H54         H  0.75728665  0.02957504  0.61398581     0.33000
H55         H  0.66728233  0.06096525  0.56572957     0.31900
H56         H  0.97369861  0.33307929  0.61349178     0.35900
H57         H  0.78917862  0.26955459  0.62738767     0.28700
H58         H  0.90586070  0.11032595  0.53052488     0.32900
H59         H  0.76287575  0.09048994  0.53670420     0.35800
H60         H  0.89862571  0.08723588  0.61269575     0.28400
H61         H  0.84792446  0.29844611  0.62831302     0.41200
H62         H  0.97672544  0.36651089  0.56705526     0.31300
H63         H  0.03377066  0.31902666  0.57279896     0.38900
H64         H  0.69339577  0.06097354  0.58203885     0.30800
H65         H  0.81014961  0.27529192  0.53973915     0.30800
H66         H  0.85583153  0.11193246  0.52902658     0.31100
Zr67       Zr  0.14213546  0.28220428  0.44350652     2.17500
O68         O  0.15444482  0.24792834  0.46865747    -0.51300
O69         O  0.06107141  0.21079535  0.43664280    -0.74500
O70         O  0.09363861  0.28794008  0.46572712    -0.81300
O71         O  0.21672995  0.23858538  0.42026377    -0.83000
O72         O  0.09029138  0.35927917  0.46353719    -0.78600
O73         O  0.16385063  0.21726271  0.44166767    -0.90300
O74         O  0.03080041  0.23023995  0.41430839    -0.76200
O75         O  0.09667584  0.31878185  0.43250512    -0.85700
O76         O  0.14264774  0.27185988  0.41486570    -0.85400
O77         O  0.18707868  0.36803099  0.45184588    -0.72200
O78         O  0.22894708  0.32446533  0.43604689    -0.84300
Zr79       Zr  0.22751472  0.43751259  0.40286088     2.26400
Zr80       Zr  0.14213119  0.40489288  0.44007360     2.06300
Zr81       Zr  0.22906361  0.31510877  0.40734200     2.10000
Zr82       Zr  0.09723079  0.30915806  0.40399609     1.78800
O83         O  0.31706465  0.34001855  0.40979114    -0.93100
O84         O  0.02607439  0.32256896  0.40464928    -0.40900
O85         O  0.18258828  0.35072878  0.39611561    -0.77500
O86         O  0.14087651  0.39638771  0.41103359    -0.96200
O87         O  0.22747516  0.44798228  0.43147781    -0.89500
O88         O  0.27440202  0.40204955  0.41409506    -0.92400
C89         C  0.02720233  0.20093922  0.42590284     1.01400
C90         C  0.19209284  0.20975814  0.43213003     1.14300
C91         C  0.07847104  0.31751518  0.47056301     1.05100
O92         O  0.06361710  0.40506422  0.43804251    -0.94500
O93         O  0.16081897  0.48645305  0.42997817    -0.90300
O94         O  0.20579501  0.50319448  0.40669506    -0.83400
C95         C  0.18388943  0.51449117  0.41777320     1.11700
O96         O  0.29369304  0.38684893  0.46839049    -0.96500
Zr97       Zr  0.27232463  0.41152294  0.44283385     1.88900
O98         O  0.31400653  0.50330494  0.40764493    -0.73100
O99         O  0.17652255  0.46310136  0.46260596    -0.52400
O100        O  0.27907386  0.46612795  0.46508360    -0.97100
O101        O  0.35090344  0.41095756  0.44247613    -0.54300
O102        O  0.33413928  0.49378374  0.43341597    -0.73700
C103        C  0.34308727  0.51831440  0.42009540     0.98700
O104        O  0.23915135  0.48656410  0.37832870    -0.62500
O105        O  0.22672908  0.25484154  0.38783217    -0.57300
O106        O  0.23632426  0.40845581  0.37597206    -0.94000
O107        O  0.24199589  0.33841601  0.37877004    -0.92400
O108        O  0.07819127  0.24877348  0.38230568    -0.92700
O109        O  0.08350237  0.33432710  0.37730714    -0.91500
C110        C  0.24108826  0.37248492  0.37006892     1.17500
H111        H  0.12714310  0.23704826  0.41191179     0.33500
H112        H  0.12413101  0.41235558  0.40605194     0.44300
H113        H  0.30795880  0.41799616  0.40982819     0.37800
H114        H  0.18658132  0.36988110  0.46354429     0.34300
H115        H  0.99791761  0.29143408  0.40021444     0.26100
H116        H  0.15043831  0.47160850  0.46518531     0.32100
H117        H  0.31520036  0.48527638  0.46763503     0.38000
H118        H  0.06740276  0.21643724  0.38778008     0.32400
H119        H  0.25341687  0.24792671  0.39124938     0.31300
H120        H  0.33154783  0.35440080  0.39906166     0.33000
H121        H  0.37376956  0.43937281  0.44944815     0.31900
H122        H  0.10521105  0.37108022  0.37712127     0.35900
H123        H  0.20652999  0.48424587  0.37618255     0.28700
H124        H  0.12061896  0.22197653  0.47213318     0.32900
H125        H  0.26231947  0.35711976  0.47193828     0.35800
H126        H  0.19507957  0.22344786  0.38995107     0.28400
H127        H  0.26191948  0.52177740  0.38141660     0.41200
H128        H  0.07073502  0.43758095  0.44256510     0.31300
H129        H  0.01820163  0.32186183  0.41632084     0.38900
H130        H  0.36429393  0.42169671  0.43138283     0.30800
H131        H  0.17682800  0.44302341  0.47193312     0.30800
H132        H  0.16521656  0.27490322  0.47679163     0.31100
Zr133      Zr  0.16011959  0.90827962  0.44511842     2.17500
O134        O  0.11035643  0.89532471  0.46946500    -0.51300
O135        O  0.17577589  0.99242643  0.44011894    -0.74500
O136        O  0.21257452  0.95153577  0.46838326    -0.81300
O137        O  0.04584740  0.84504807  0.41874975    -0.83000
O138        O  0.28633781  0.95258970  0.46590857    -0.78600
O139        O  0.07258454  0.88505353  0.44283249    -0.90300
O140        O  0.22982756  0.02608485  0.41903499    -0.76200
O141        O  0.24447339  0.95138477  0.43602519    -0.85700
O142        O  0.15602106  0.91734328  0.41649234    -0.85400
O143        O  0.19471275  0.85672649  0.45294782    -0.72200
O144        O  0.11286830  0.82490345  0.43466776    -0.84300
Zr145      Zr  0.22940817  0.82511526  0.40361041     2.26400
Zr146      Zr  0.27885664  0.89956632  0.44289405     2.06300
Zr147      Zr  0.11086161  0.83422427  0.40593218     2.10000
Zr148      Zr  0.24067260  0.96004110  0.40757546     1.78800
O149        O  0.04243872  0.74899243  0.40258774    -0.93100
O150        O  0.32540817  0.02939923  0.41128775    -0.40900
O151        O  0.19544686  0.87757494  0.39692597    -0.77500
O152        O  0.27746268  0.90954203  0.41395115    -0.96200
O153        O  0.23322854  0.81641828  0.43228887    -0.89500
O154        O  0.14455408  0.78126385  0.41260312    -0.92400
C155        C  0.20300309  0.02849333  0.43042594     1.01400
C156        C  0.03871672  0.86260863  0.43196424     1.14300
C157        C  0.25707217  0.96464164  0.47310232     1.05100
O158        O  0.36239505  0.96951257  0.44779608    -0.94500
O159        O  0.34586055  0.89013289  0.43106418    -0.90300
O160        O  0.31725372  0.84910629  0.40713243    -0.83400
C161        C  0.35128110  0.87069021  0.41802462     1.11700
O162        O  0.09750113  0.75409303  0.46576985    -0.96500
Zr163      Zr  0.14886285  0.77431604  0.44142542     1.88900
O164        O  0.20638916  0.73735126  0.40759546    -0.73100
O165        O  0.29015593  0.85257288  0.46466480    -0.52400
O166        O  0.18222251  0.74918813  0.46408855    -0.97100
O167        O  0.06535172  0.70299941  0.43718194    -0.54300
O168        O  0.16515817  0.71020955  0.43151277    -0.73700
C169        C  0.18586421  0.70443095  0.41888668     0.98700
O170        O  0.26430002  0.80718347  0.37972924    -0.62500
O171        O  0.06840793  0.85850117  0.38595827    -0.57300
O172        O  0.19742683  0.82278540  0.37607672    -0.94000
O173        O  0.12549391  0.82546521  0.37749613    -0.92400
O174        O  0.20307102  0.98270585  0.38554391    -0.92700
O175        O  0.28755471  0.98333401  0.38228596    -0.91500
C176        C  0.15999025  0.82357116  0.36945635     1.17500
H177        H  0.13919993  0.93559588  0.41374871     0.33500
H178        H  0.31087967  0.92663180  0.40957011     0.44300
H179        H  0.12601054  0.74908805  0.40741235     0.37800
H180        H  0.19488344  0.85436408  0.46464358     0.34300
H181        H  0.32415991  0.05921103  0.40756256     0.26100
H182        H  0.32067477  0.85164578  0.46169169     0.32100
H183        H  0.19737251  0.77823438  0.47148691     0.38000
H184        H  0.18109363  0.95087726  0.37987581     0.32400
H185        H  0.03222054  0.83563900  0.38766314     0.31300
H186        H  0.02488882  0.74996967  0.39263715     0.33000
H187        H  0.06886039  0.68340420  0.42833454     0.31900
H188        H  0.31526551  0.97656878  0.38414971     0.35900
H189        H  0.29448202  0.83905764  0.37681049     0.28700
H190        H  0.12316039  0.92867749  0.47440986     0.32900
H191        H  0.08628072  0.71868069  0.46822972     0.35800
H192        H  0.07449224  0.89159093  0.38954574     0.28400
H193        H  0.27710970  0.78532535  0.38357458     0.41200
H194        H  0.37677586  0.95741527  0.45621504     0.31300
H195        H  0.32989845  0.03349123  0.42320136     0.38900
H196        H  0.04593673  0.71727488  0.43231053     0.30800
H197        H  0.30016757  0.87484646  0.47423201     0.30800
H198        H  0.12026288  0.87693312  0.47705119     0.31100
Zr199      Zr  0.27735857  0.14218719  0.55959734     2.17500
O200        O  0.24791191  0.16303148  0.53494914    -0.51300
O201        O  0.20902918  0.05761448  0.56414235    -0.74500
O202        O  0.28425550  0.09603892  0.53684147    -0.81300
O203        O  0.22452427  0.20166838  0.58764090    -0.83000
O204        O  0.36104084  0.10267382  0.53774476    -0.78600
O205        O  0.20893172  0.15915250  0.56381362    -0.90300
O206        O  0.22610934  0.02659084  0.58672182    -0.76200
O207        O  0.31856925  0.09913771  0.56884442    -0.85700
O208        O  0.26544302  0.13319586  0.58810084    -0.85400
O209        O  0.36346778  0.19350002  0.55189308    -0.72200
O210        O  0.31396100  0.22534210  0.57019959    -0.84300
Zr211      Zr  0.43014580  0.22474504  0.60141363     2.26400
Zr212      Zr  0.40462617  0.15067004  0.56190099     2.06300
Zr213      Zr  0.30308621  0.21549864  0.59889115     2.10000
Zr214      Zr  0.30661170  0.09038544  0.59734271     1.78800
O215        O  0.29837252  0.29146460  0.60107674    -0.93100
O216        O  0.32258146  0.02232026  0.59196441    -0.40900
O217        O  0.34420196  0.17253979  0.60868561    -0.77500
O218        O  0.39340176  0.14114768  0.59076158    -0.96200
O219        O  0.44181809  0.23313648  0.57273154    -0.89500
O220        O  0.38923083  0.26806342  0.59209554    -0.92400
C221        C  0.19784129  0.02295027  0.57470783     1.01400
C222        C  0.19762916  0.18074485  0.57501157     1.14300
C223        C  0.31766727  0.08685981  0.53133863     1.05100
O224        O  0.41210482  0.07616950  0.56033381    -0.94500
O225        O  0.48437040  0.16623116  0.57303929    -0.90300
O226        O  0.49911418  0.20954738  0.59664932    -0.83400
C227        C  0.51097209  0.18794551  0.58567202     1.11700
O228        O  0.36563251  0.29503959  0.53969972    -0.96500
Zr229      Zr  0.40031121  0.27557405  0.56339925     1.88900
O230        O  0.49544452  0.31205477  0.59771619    -0.73100
O231        O  0.46244214  0.19316067  0.53967059    -0.52400
O232        O  0.45560999  0.29894288  0.54000370    -0.97100
O233        O  0.39300533  0.34909613  0.56884871    -0.54300
O234        O  0.48235999  0.33676827  0.57303642    -0.73700
C235        C  0.50848329  0.34336091  0.58587329     0.98700
O236        O  0.47655528  0.21285272  0.62331525    -0.62500
O237        O  0.24417071  0.16954873  0.62054571    -0.57300
O238        O  0.40598360  0.24301857  0.62795652    -0.94000
O239        O  0.33909249  0.25331966  0.62471417    -0.92400
O240        O  0.24762762  0.06524348  0.61974451    -0.92700
O241        O  0.33359047  0.06823854  0.62228392    -0.91500
C242        C  0.37303309  0.25304802  0.63356912     1.17500
H243        H  0.23027131  0.11468356  0.59062286     0.33500
H244        H  0.41069950  0.12486553  0.59506873     0.44300
H245        H  0.40262860  0.30009700  0.59731796     0.37800
H246        H  0.36612776  0.19615118  0.54020818     0.34300
H247        H  0.30168519  0.99603556  0.59989737     0.26100
H248        H  0.49197728  0.22137254  0.54485842     0.32100
H249        H  0.47453031  0.33589717  0.54006569     0.38000
H250        H  0.23027465  0.02831586  0.61983358     0.32400
H251        H  0.21974389  0.13703215  0.61582470     0.31300
H252        H  0.27743383  0.28620933  0.61076874     0.33000
H253        H  0.41307754  0.36439404  0.57875530     0.31900
H254        H  0.36219930  0.10003960  0.62613541     0.35900
H255        H  0.50110416  0.24685697  0.62702022     0.28700
H256        H  0.22151311  0.13068467  0.53058400     0.32900
H257        H  0.38786352  0.33112562  0.53762783     0.35800
H258        H  0.26327024  0.16109670  0.62834260     0.28400
H259        H  0.45298256  0.19737865  0.63245806     0.41200
H260        H  0.37759534  0.04802921  0.56167355     0.31300
H261        H  0.30649524  0.00882434  0.58133307     0.38900
H262        H  0.35796006  0.33553610  0.57235156     0.30800
H263        H  0.47402642  0.16989324  0.53638166     0.30800
H264        H  0.27586183  0.17461807  0.52715147     0.31100
Zr265      Zr  0.76560522  0.89321763  0.44520343     2.17500
O266        O  0.79972112  0.94913696  0.46834825    -0.51300
O267        O  0.83255696  0.87426267  0.44229746    -0.74500
O268        O  0.75536349  0.84216094  0.46916770    -0.81300
O269        O  0.81798510  0.00342935  0.41585548    -0.83000
O270        O  0.68025345  0.77037089  0.46749160    -0.78600
O271        O  0.83495886  0.97735657  0.43971238    -0.90300
O272        O  0.81638907  0.82715407  0.41969958    -0.76200
O273        O  0.72342744  0.80818379  0.43705100    -0.85700
O274        O  0.77754061  0.89296118  0.41670649    -0.85400
O275        O  0.67944553  0.86047432  0.45259644    -0.72200
O276        O  0.72943880  0.93912723  0.43362136    -0.84300
Zr277      Zr  0.61313623  0.82129923  0.40279333     2.26400
Zr278      Zr  0.63732264  0.77566059  0.44331791     2.06300
Zr279      Zr  0.74047225  0.93749301  0.40504481     2.10000
Zr280      Zr  0.73533444  0.80775252  0.40875291     1.78800
O281        O  0.73778217  0.01449510  0.40254129    -0.93100
O282        O  0.72047928  0.72564591  0.41701675    -0.40900
O283        O  0.69919568  0.85243554  0.39625109    -0.77500
O284        O  0.64788086  0.77336889  0.41445536    -0.96200
O285        O  0.60084010  0.82048491  0.43135089    -0.89500
O286        O  0.65443650  0.90618363  0.41131036    -0.92400
C287        C  0.84397736  0.85069686  0.43194482     1.01400
C288        C  0.84524226  0.00970110  0.42833896     1.14300
C289        C  0.72239752  0.79884870  0.47447488     1.05100
O290        O  0.62847581  0.69299282  0.44480856    -0.94500
O291        O  0.55483458  0.71503314  0.43357854    -0.90300
O292        O  0.54650986  0.73576436  0.40771563    -0.83400
C293        C  0.53084573  0.70673891  0.42013125     1.11700
O294        O  0.66882010  0.95531289  0.46460977    -0.96500
Zr295      Zr  0.64290421  0.90482625  0.44000690     1.88900
O296        O  0.54996338  0.84659615  0.40563791    -0.73100
O297        O  0.58063801  0.76044102  0.46586486    -0.52400
O298        O  0.57902886  0.86509795  0.46087714    -0.97100
O299        O  0.66075208  0.99040215  0.43659565    -0.54300
O300        O  0.56641163  0.89424375  0.42822193    -0.73700
C301        C  0.53948927  0.87140974  0.41584182     0.98700
O302        O  0.56232987  0.78297989  0.37863422    -0.62500
O303        O  0.80339762  0.96083218  0.38390642    -0.57300
O304        O  0.64410276  0.85469577  0.37552528    -0.94000
O305        O  0.70890335  0.93393690  0.37812435    -0.92400
O306        O  0.79131458  0.83779169  0.38551378    -0.92700
O307        O  0.71172017  0.74832312  0.38653376    -0.91500
C308        C  0.67738764  0.89702511  0.36963770     1.17500
H309        H  0.81262705  0.90915611  0.41399187     0.33500
H310        H  0.63015493  0.73940566  0.41056794     0.44300
H311        H  0.64198014  0.92517885  0.40566328     0.37800
H312        H  0.67667642  0.86151679  0.46425102     0.34300
H313        H  0.72498180  0.72746620  0.42895123     0.26100
H314        H  0.57243175  0.72719106  0.47007467     0.32100
H315        H  0.55136525  0.83533939  0.45559558     0.38000
H316        H  0.78768817  0.86553998  0.38105311     0.32400
H317        H  0.81777998  0.99724579  0.38245497     0.31300
H318        H  0.76614624  0.03598794  0.39534380     0.33000
H319        H  0.62944090  0.98956107  0.43969040     0.31900
H320        H  0.67587198  0.73647336  0.38462692     0.35900
H321        H  0.56381500  0.75218952  0.37672192     0.28700
H322        H  0.81762648  0.93617473  0.47492823     0.32900
H323        H  0.63998532  0.95899859  0.46780154     0.35800
H324        H  0.83061728  0.95734296  0.38893013     0.28400
H325        H  0.52738557  0.77132002  0.38188490     0.41200
H326        H  0.61374295  0.67689844  0.43428650     0.31300
H327        H  0.68429784  0.70263777  0.41537641     0.38900
H328        H  0.66334345  0.99612929  0.42472510     0.30800
H329        H  0.60148377  0.78405780  0.47446340     0.30800
H330        H  0.77015461  0.94239130  0.47486213     0.31100
Zr331      Zr  0.87954989  0.77102771  0.56073462     2.17500
O332        O  0.92530710  0.81329749  0.53617174    -0.51300
O333        O  0.86647158  0.83984193  0.56790929    -0.74500
O334        O  0.82517708  0.76347458  0.53812331    -0.81300
O335        O  0.99437380  0.81847160  0.58761066    -0.83000
O336        O  0.75444403  0.68751243  0.53851352    -0.78600
O337        O  0.96819320  0.83258676  0.56341262    -0.90300
O338        O  0.81272423  0.81709066  0.58918046    -0.76200
O339        O  0.79494349  0.72677616  0.56932080    -0.85700
O340        O  0.88111925  0.77989285  0.58946172    -0.85400
O341        O  0.84672454  0.68605801  0.55198543    -0.72200
O342        O  0.92768014  0.73501217  0.57048761    -0.84300
Zr343      Zr  0.81183951  0.61368998  0.60089692     2.26400
Zr344      Zr  0.76215555  0.64165359  0.56171805     2.06300
Zr345      Zr  0.92751611  0.74242450  0.59932001     2.10000
Zr346      Zr  0.79590016  0.73506296  0.59785297     1.78800
O347        O  0.99884874  0.72999239  0.60229402    -0.93100
O348        O  0.71531569  0.72546510  0.59007434    -0.40900
O349        O  0.84266062  0.69875644  0.60846432    -0.77500
O350        O  0.76246393  0.64883413  0.59072075    -0.96200
O351        O  0.80926539  0.60545946  0.57206877    -0.89500
O352        O  0.89642490  0.65700864  0.59188615    -0.92400
C353        C  0.84030999  0.84800304  0.57821219     1.01400
C354        C  0.00169288  0.84333534  0.57441361     1.14300
C355        C  0.78216098  0.73142749  0.53244540     1.05100
O356        O  0.67956451  0.63304199  0.56290290    -0.94500
O357        O  0.70165948  0.55839863  0.57152588    -0.90300
O358        O  0.72595001  0.54712100  0.59655323    -0.83400
C359        C  0.69503825  0.53294352  0.58460706     1.11700
O360        O  0.94237785  0.68004590  0.53812295    -0.96500
Zr361      Zr  0.89323668  0.64942322  0.56293138     1.88900
O362        O  0.83724656  0.55108747  0.59584772    -0.73100
O363        O  0.74466118  0.58602989  0.53875909    -0.52400
O364        O  0.85788341  0.59098483  0.54046756    -0.97100
O365        O  0.97698419  0.66199215  0.56692258    -0.54300
O366        O  0.87778857  0.56851608  0.57169092    -0.73700
C367        C  0.85741450  0.54034083  0.58402447     0.98700
O368        O  0.76588443  0.55420089  0.62253677    -0.62500
O369        O  0.96002675  0.80760702  0.61998356    -0.57300
O370        O  0.84602461  0.64308175  0.62851328    -0.94000
O371        O  0.92046791  0.71524702  0.62699225    -0.92400
O372        O  0.82586117  0.78211286  0.62301816    -0.92700
O373        O  0.73420881  0.70420954  0.61954567    -0.91500
C374        C  0.88533820  0.67968821  0.63500731     1.17500
H375        H  0.89752899  0.81440893  0.59281126     0.33500
H376        H  0.72870062  0.63037276  0.59476225     0.44300
H377        H  0.91562553  0.64379725  0.59691294     0.37800
H378        H  0.84708414  0.68503051  0.54027048     0.34300
H379        H  0.71461547  0.75410860  0.59511926     0.26100
H380        H  0.71080191  0.57756369  0.53508807     0.32100
H381        H  0.84214799  0.60486843  0.53328317     0.38000
H382        H  0.85298674  0.77628935  0.62676863     0.32400
H383        H  0.99666629  0.82159707  0.61995217     0.31300
H384        H  0.01953349  0.75376229  0.61088598     0.33000
H385        H  0.97657566  0.64801198  0.57778393     0.31900
H386        H  0.71197401  0.66827836  0.61726678     0.35900
H387        H  0.79061290  0.54853554  0.62841500     0.28700
H388        H  0.91402299  0.83718526  0.53327876     0.32900
H389        H  0.95401093  0.65618529  0.53572087     0.35800
H390        H  0.95509227  0.83461233  0.61556268     0.28400
H391        H  0.75603433  0.57210809  0.63029906     0.41200
H392        H  0.66014667  0.60857234  0.55431076     0.31300
H393        H  0.71776530  0.73259585  0.57828104     0.38900
H394        H  0.99868706  0.69850398  0.56822601     0.30800
H395        H  0.76722409  0.60772450  0.53010829     0.30800
H396        H  0.91198000  0.78778650  0.52748702     0.31100
Zr397      Zr  0.10415932  0.58292368  0.11228237     2.17500
O398        O  0.13305341  0.62971463  0.13755522    -0.51300
O399        O  0.17567391  0.57254993  0.10684077    -0.74500
O400        O  0.09581365  0.52813279  0.13485265    -0.81300
O401        O  0.15968161  0.69504482  0.08555155    -0.83000
O402        O  0.02374516  0.45388556  0.13164387    -0.78600
O403        O  0.17447380  0.66696744  0.10926831    -0.90300
O404        O  0.16132796  0.53107707  0.08291954    -0.76200
O405        O  0.06736915  0.50068557  0.10145250    -0.85700
O406        O  0.11645458  0.59308066  0.08360671    -0.85400
O407        O  0.01736236  0.54291669  0.11970444    -0.72200
O408        O  0.06478126  0.62973317  0.10387046    -0.84300
Zr409      Zr  0.95253272  0.51527482  0.07020827     2.26400
Zr410      Zr  0.98059741  0.46134454  0.10804034     2.06300
Zr411      Zr  0.07575520  0.63795596  0.07524965     2.10000
Zr412      Zr  0.07906247  0.51052916  0.07299072     1.78800
O413        O  0.05041954  0.69960407  0.08039808    -0.93100
O414        O  0.06736376  0.42717346  0.07666397    -0.40900
O415        O  0.03980040  0.55586121  0.06420970    -0.77500
O416        O  0.99144567  0.46840564  0.07914013    -0.96200
O417        O  0.93967319  0.50510418  0.09881587    -0.89500
O418        O  0.98846135  0.59770721  0.08114265    -0.92400
C419        C  0.18872474  0.55378412  0.09527702     1.01400
C420        C  0.18722781  0.69954973  0.09790279     1.14300
C421        C  0.06438204  0.48323274  0.13918971     1.05100
O422        O  0.97789302  0.38164830  0.10599665    -0.94500
O423        O  0.90107274  0.39772151  0.09736539    -0.90300
O424        O  0.88585817  0.42889403  0.07440772    -0.83400
C425        C  0.87424350  0.39420784  0.08499291     1.11700
O426        O  0.00862649  0.63695338  0.13437339    -0.96500
Zr427      Zr  0.97705205  0.58691360  0.10982687     1.88900
O428        O  0.88715199  0.53662919  0.07403596    -0.73100
O429        O  0.92361703  0.43567921  0.13104005    -0.52400
O430        O  0.92222020  0.54759389  0.13291880    -0.97100
O431        O  0.97253353  0.66324716  0.10797112    -0.54300
O432        O  0.89474060  0.56413756  0.09995595    -0.73700
C433        C  0.87114521  0.54943360  0.08645742     0.98700
O434        O  0.90502874  0.47553031  0.04560071    -0.62500
O435        O  0.12364599  0.70335903  0.05541317    -0.57300
O436        O  0.98252891  0.55298211  0.04328593    -0.94000
O437        O  0.05575908  0.62549018  0.04656244    -0.92400
O438        O  0.13651520  0.54453767  0.05022607    -0.92700
O439        O  0.05062867  0.46833743  0.04691984    -0.91500
C440        C  0.02086593  0.59246430  0.03764173     1.17500
H441        H  0.15137385  0.61111521  0.08068973     0.33500
H442        H  0.97544980  0.43575214  0.07419092     0.44300
H443        H  0.97313327  0.61546593  0.07647894     0.37800
H444        H  0.01418881  0.54029409  0.13137804     0.34300
H445        H  0.08183443  0.42110570  0.06682415     0.26100
H446        H  0.89030506  0.42492291  0.12628210     0.32100
H447        H  0.90708297  0.51139198  0.13093412     0.38000
H448        H  0.15178119  0.52311483  0.04939074     0.32400
H449        H  0.13479068  0.73527629  0.06116537     0.31300
H450        H  0.03819927  0.70429496  0.06977406     0.33000
H451        H  0.94733812  0.65894007  0.11618243     0.31900
H452        H  0.01789444  0.46604944  0.04504909     0.35900
H453        H  0.90751364  0.44510796  0.04408670     0.28700
H454        H  0.15750782  0.62121898  0.14215539     0.32900
H455        H  0.04311449  0.66318800  0.13166162     0.35800
H456        H  0.15453818  0.70204293  0.05357403     0.28400
H457        H  0.86955493  0.46325126  0.04829851     0.41200
H458        H  0.01331520  0.39025555  0.10580002     0.31300
H459        H  0.09072543  0.43076416  0.08550009     0.38900
H460        H  0.95612077  0.66133482  0.09744107     0.30800
H461        H  0.92148118  0.40440056  0.13496811     0.30800
H462        H  0.10402602  0.61392786  0.14497113     0.31100
Zr463      Zr  0.22442989  0.45764070  0.22421635     2.17500
O464        O  0.27202876  0.48494650  0.19904429    -0.51300
O465        O  0.21520331  0.52984354  0.22985728    -0.74500
O466        O  0.16989613  0.45360386  0.20206030    -0.81300
O467        O  0.34044495  0.49939176  0.25041572    -0.83000
O468        O  0.09973867  0.37673601  0.20261464    -0.78600
O469        O  0.31073544  0.52371075  0.22898550    -0.90300
O470        O  0.16550284  0.51096944  0.25210644    -0.63600
O471        O  0.13975173  0.41626541  0.23302000    -0.85700
O472        O  0.22676416  0.46756931  0.25285811    -0.85400
O473        O  0.18923615  0.37168267  0.21624010    -0.72200
O474        O  0.26963215  0.41904703  0.23458812    -0.84300
Zr475      Zr  0.15182056  0.30275838  0.26563187     2.26400
Zr476      Zr  0.10489550  0.33043117  0.22586457     2.06300
Zr477      Zr  0.27069994  0.42864971  0.26332321     2.10000
Zr478      Zr  0.14224912  0.42711814  0.26151359     1.78800
O479        O  0.34461335  0.42170713  0.26831904    -0.93100
O480        O  0.06171173  0.41932071  0.25492050    -0.40900
O481        O  0.18646246  0.38890133  0.27295125    -0.77500
O482        O  0.10556873  0.34032024  0.25476313    -0.96200
O483        O  0.14893763  0.29182292  0.23686332    -0.89500
O484        O  0.23619186  0.34270014  0.25644227    -0.92400
C485        C  0.19254404  0.54079686  0.24073053     1.01400
C486        C  0.34554627  0.52962887  0.23892872     1.14300
C487        C  0.12700037  0.42051228  0.19654060     1.05100
O488        O  0.02200465  0.32127038  0.22491318    -0.94500
O489        O  0.04193097  0.24838640  0.23565339    -0.90300
O490        O  0.06720752  0.23420280  0.26009678    -0.83400
C491        C  0.03564237  0.22149168  0.24833474     1.11700
O492        O  0.28576486  0.36256114  0.20363324    -0.96500
Zr493      Zr  0.23290779  0.33277434  0.22769395     1.88900
O494        O  0.17553053  0.23867709  0.26245616    -0.73100
O495        O  0.09073079  0.27667144  0.20251361    -0.52400
O496        O  0.19747146  0.27625684  0.20468033    -0.97100
O497        O  0.31504872  0.34265055  0.23297311    -0.54300
O498        O  0.21428029  0.25203148  0.23802858    -0.73700
C499        C  0.19484477  0.22611673  0.25089157     0.98700
O500        O  0.09543271  0.25250813  0.28733639    -0.62500
O501        O  0.29803958  0.50043011  0.28116690    -0.57300
O502        O  0.19158899  0.32517120  0.29281184    -0.94000
O503        O  0.26502066  0.39749059  0.29063329    -0.92400
O504        O  0.17046400  0.48060895  0.28534276    -0.92700
O505        O  0.08740231  0.39407170  0.28497816    -0.91500
C506        C  0.23222414  0.36086627  0.29902500     1.17500
H507        H  0.24417755  0.50241205  0.25581417     0.33500
H508        H  0.07175755  0.32287084  0.25884048     0.44300
H509        H  0.25476668  0.32910838  0.26167546     0.37800
H510        H  0.18960483  0.36974582  0.20454135     0.34300
H511        H  0.06338924  0.42691889  0.24317595     0.26100
H512        H  0.05658928  0.26689771  0.19876307     0.32100
H513        H  0.21227246  0.25437316  0.20527932     0.38000
H514        H  0.14818898  0.49496860  0.28592592     0.32400
H515        H  0.31131228  0.53042066  0.27416429     0.31300
H516        H  0.36731755  0.45214985  0.27452733     0.33000
H517        H  0.31062765  0.32107918  0.24245375     0.31900
H518        H  0.09421951  0.36838720  0.28951183     0.35900
H519        H  0.11119203  0.23477310  0.29241296     0.28700
H520        H  0.26834501  0.51326989  0.19518115     0.32900
H521        H  0.29803233  0.33888047  0.20190386     0.35800
H522        H  0.26687451  0.49682785  0.28576498     0.28400
H523        H  0.09712351  0.27634627  0.29565025     0.41200
H524        H  0.00701126  0.30294802  0.21470342     0.31300
H525        H  0.03740188  0.38314054  0.25568360     0.38900
H526        H  0.33527129  0.37710763  0.23715011     0.30800
H527        H  0.11284847  0.29899562  0.19386574     0.30800
H528        H  0.25284736  0.45782399  0.19115739     0.31100
Zr529      Zr  0.61746374  0.82672566  0.22574995     2.17500
O530        O  0.58728688  0.83825915  0.19958891    -0.51300
O531        O  0.54739819  0.74437047  0.23190210    -0.74500
O532        O  0.62449296  0.78312333  0.20246967    -0.81300
O533        O  0.56795034  0.89049771  0.25253257    -0.83000
O534        O  0.69979393  0.78680667  0.20348236    -0.78600
O535        O  0.55213755  0.84837225  0.22877927    -0.90300
O536        O  0.56976088  0.71158498  0.25288826    -0.76200
O537        O  0.66069472  0.78466392  0.23419665    -0.85700
O538        O  0.60714599  0.81723021  0.25441592    -0.85400
O539        O  0.70298909  0.87925835  0.21757667    -0.72200
O540        O  0.65261431  0.90990559  0.23615408    -0.84300
Zr541      Zr  0.77260805  0.91222534  0.26616731     2.26400
Zr542      Zr  0.74633352  0.83782299  0.22688396     2.06300
Zr543      Zr  0.64379952  0.89997559  0.26487462     2.10000
Zr544      Zr  0.65087716  0.77574264  0.26273405     1.78800
O545        O  0.65778751  0.98394096  0.26867794    -0.93100
O546        O  0.66441176  0.70642601  0.25658896    -0.40900
O547        O  0.68710146  0.85808183  0.27359833    -0.77500
O548        O  0.73759226  0.82793449  0.25588904    -0.96200
O549        O  0.78255209  0.92067062  0.23748795    -0.89500
O550        O  0.72951174  0.95418195  0.25770722    -0.92400
C551        C  0.53899177  0.70922512  0.24196516     1.01400
C552        C  0.54189108  0.87168339  0.23959696     1.14300
C553        C  0.65670965  0.77229808  0.19698923     1.05100
O554        O  0.76048821  0.76786577  0.22328337    -0.94500
O555        O  0.82698098  0.85435104  0.23766308    -0.90300
O556        O  0.83979122  0.89439827  0.26180587    -0.83400
C557        C  0.85277640  0.87476113  0.25054930     1.11700
O558        O  0.69647353  0.97655155  0.20635574    -0.96500
Zr559      Zr  0.73850668  0.96139556  0.22889629     1.88900
O560        O  0.83712995  0.99932900  0.26135605    -0.73100
O561        O  0.80081769  0.88138044  0.20404781    -0.52400
O562        O  0.79040224  0.98528619  0.20467417    -0.97100
O563        O  0.73342005  0.03591823  0.23485198    -0.54300
O564        O  0.82198789  0.02359785  0.23698600    -0.73700
C565        C  0.84932641  0.03048396  0.24951732     0.98700
O566        O  0.82431141  0.92570073  0.29021584    -0.62500
O567        O  0.57597763  0.86643913  0.28463690    -0.57300
O568        O  0.74712185  0.92070931  0.29352947    -0.94000
O569        O  0.67163096  0.91646884  0.29269900    -0.92400
O570        O  0.59685732  0.75061737  0.28645409    -0.92700
O571        O  0.67909471  0.75154109  0.28694960    -0.91500
C572        C  0.70958910  0.92047105  0.30034150     1.17500
H573        H  0.57243521  0.79879064  0.25750381     0.33500
H574        H  0.75558749  0.81216730  0.26000007     0.44300
H575        H  0.74309726  0.98613196  0.26301110     0.37800
H576        H  0.70476476  0.88182347  0.20587698     0.34300
H577        H  0.63552767  0.67688090  0.26150454     0.26100
H578        H  0.82336690  0.91562721  0.20805599     0.32100
H579        H  0.80775268  0.02221103  0.20446194     0.38000
H580        H  0.59641677  0.78114054  0.28973487     0.32400
H581        H  0.56331696  0.89016964  0.28470552     0.31300
H582        H  0.63366229  0.98031682  0.27718879     0.33000
H583        H  0.75319042  0.05019698  0.24488222     0.31900
H584        H  0.71463355  0.76249743  0.28488703     0.35900
H585        H  0.82561103  0.89464596  0.29182035     0.28700
H586        H  0.59429076  0.87318152  0.19963076     0.32900
H587        H  0.71603362  0.01286484  0.20419960     0.35800
H588        H  0.54871705  0.83568134  0.27968418     0.28400
H589        H  0.85866753  0.95122979  0.28706296     0.41200
H590        H  0.74449535  0.74622842  0.23282612     0.31300
H591        H  0.65874667  0.70119406  0.24474517     0.38900
H592        H  0.69834633  0.02306605  0.23819556     0.30800
H593        H  0.82250447  0.86645055  0.20307036     0.30800
H594        H  0.55042232  0.81745855  0.19995336     0.31100
Zr595      Zr  0.49712355  0.59549373  0.11062508     2.17500
O596        O  0.44366996  0.57813999  0.13420608    -0.51300
O597        O  0.51824198  0.68168339  0.10647739    -0.74500
O598        O  0.55050580  0.63751794  0.13391546    -0.81300
O599        O  0.38629877  0.54228406  0.08227314    -0.83000
O600        O  0.62125186  0.63243846  0.13240917    -0.78600
O601        O  0.41440672  0.58469663  0.10607189    -0.90300
O602        O  0.56461458  0.70972853  0.08341811    -0.76200
O603        O  0.58165426  0.63507539  0.10194267    -0.85700
O604        O  0.49579158  0.60555499  0.08202639    -0.85400
O605        O  0.52613656  0.53958382  0.11873654    -0.72200
O606        O  0.44754506  0.51260269  0.09988294    -0.84300
Zr607      Zr  0.56301010  0.50817769  0.06928259     2.26400
Zr608      Zr  0.61062346  0.57931076  0.10930249     2.06300
Zr609      Zr  0.44800559  0.52354388  0.07121271     2.10000
Zr610      Zr  0.58030153  0.64496811  0.07341836     1.78800
O611        O  0.36715226  0.44770909  0.06884226    -0.93100
O612        O  0.66229647  0.71601971  0.07955539    -0.40900
O613        O  0.53261044  0.56336046  0.06194225    -0.77500
O614        O  0.61204973  0.59092624  0.08048019    -0.96200
O615        O  0.56376608  0.49753166  0.09796951    -0.89500
O616        O  0.47775515  0.46734928  0.07786806    -0.92400
C617        C  0.54168943  0.71499177  0.09556242     1.01400
C618        C  0.38155043  0.56434120  0.09476715     1.14300
C619        C  0.59372028  0.64737477  0.13916890     1.05100
O620        O  0.69669683  0.64568299  0.11286532    -0.94500
O621        O  0.67349818  0.56217629  0.09880353    -0.90300
O622        O  0.64789127  0.52372906  0.07428874    -0.83400
C623        C  0.67974728  0.54253998  0.08597022     1.11700
O624        O  0.41907276  0.43122248  0.12868866    -0.96500
Zr625      Zr  0.47923853  0.45820823  0.10659126     1.88900
O626        O  0.53965521  0.42053232  0.07315837    -0.73100
O627        O  0.61402585  0.53143022  0.13227551    -0.52400
O628        O  0.50832620  0.43482316  0.13076691    -0.97100
O629        O  0.39717344  0.38559332  0.10150709    -0.54300
O630        O  0.49965118  0.39622652  0.09739681    -0.73700
C631        C  0.52014460  0.38925052  0.08494624     0.98700
O632        O  0.61920112  0.51477507  0.04748919    -0.62500
O633        O  0.43048979  0.56616107  0.04949133    -0.57300
O634        O  0.52156177  0.49210181  0.04244816    -0.94000
O635        O  0.44870599  0.49210047  0.04456453    -0.92400
O636        O  0.55154763  0.66964751  0.04945047    -0.92700
O637        O  0.63523433  0.66427593  0.05008031    -0.91500
C638        C  0.48088478  0.48725911  0.03625774     1.17500
H639        H  0.48059591  0.62527756  0.07921495     0.33500
H640        H  0.64596040  0.60632649  0.07655650     0.44300
H641        H  0.45831075  0.43566515  0.07247406     0.37800
H642        H  0.52523718  0.53649900  0.13041665     0.34300
H643        H  0.66168007  0.72157851  0.09136676     0.26100
H644        H  0.60696722  0.49920583  0.12754273     0.32100
H645        H  0.48984445  0.39786369  0.13073934     0.38000
H646        H  0.57309269  0.70638719  0.04889843     0.32400
H647        H  0.39432417  0.55414959  0.05037498     0.31300
H648        H  0.34843690  0.45621773  0.06089978     0.33000
H649        H  0.40305696  0.35713367  0.10028994     0.31900
H650        H  0.63194685  0.63186764  0.04697949     0.35900
H651        H  0.60632958  0.48024611  0.04362398     0.28700
H652        H  0.45880034  0.60933272  0.14062329     0.32900
H653        H  0.43165531  0.46062497  0.13590372     0.35800
H654        H  0.44712890  0.60164559  0.05273430     0.28400
H655        H  0.61375290  0.53255585  0.03840539     0.41200
H656        H  0.70171287  0.67041857  0.10435844     0.31300
H657        H  0.68577375  0.70326046  0.07838990     0.38900
H658        H  0.38738876  0.39069779  0.09053183     0.30800
H659        H  0.64981288  0.54821735  0.13529667     0.30800
H660        H  0.44885780  0.55423911  0.14074383     0.31100
Zr661      Zr  0.49080475  0.97376815  0.11288605     2.17500
O662        O  0.51373594  0.94526613  0.13736119    -0.51300
O663        O  0.40865824  0.90085943  0.10825475    -0.74500
O664        O  0.44364753  0.98004041  0.13561188    -0.81300
O665        O  0.55155311  0.92520659  0.08487105    -0.83000
O666        O  0.43760834  0.05001193  0.13243206    -0.78600
O667        O  0.51073592  0.90751389  0.10901368    -0.90300
O668        O  0.37789204  0.91467290  0.08494151    -0.76200
O669        O  0.44323697  0.00998659  0.10337111    -0.85700
O670        O  0.48376101  0.96175337  0.08419406    -0.85400
O671        O  0.53737686  0.06069425  0.12027869    -0.72200
O672        O  0.57530573  0.01591962  0.10290210    -0.84300
Zr673      Zr  0.56609145  0.12674073  0.07059497     2.26400
Zr674      Zr  0.49009252  0.09680262  0.10971582     2.06300
Zr675      Zr  0.56751182  0.00499636  0.07415088     2.10000
Zr676      Zr  0.43576103  0.99781835  0.07498093     1.78800
O677        O  0.65379543  0.02358366  0.07526409    -0.93100
O678        O  0.35966969  0.99910245  0.08169279    -0.40900
O679        O  0.51856097  0.03972698  0.06432208    -0.77500
O680        O  0.48154212  0.08579510  0.08083911    -0.96200
O681        O  0.57332093  0.13960249  0.09922179    -0.89500
O682        O  0.61514683  0.09198104  0.08034620    -0.92400
C683        C  0.37509500  0.88750885  0.09714090     1.01400
C684        C  0.53181902  0.89742761  0.09736344     1.14300
C685        C  0.42765160  0.00955999  0.13984931     1.05100
O686        O  0.41431558  0.10228908  0.10845398    -0.94500
O687        O  0.50550213  0.17698471  0.09981554    -0.90300
O688        O  0.54086066  0.18931578  0.07485396    -0.83400
C689        C  0.52287666  0.20228386  0.08669731     1.11700
O690        O  0.64570062  0.08539549  0.13512344    -0.96500
Zr691      Zr  0.62021185  0.10342947  0.10914854     1.88900
O692        O  0.65269896  0.19368668  0.07386868    -0.73100
O693        O  0.52271566  0.15140834  0.13328781    -0.52400
O694        O  0.63568990  0.16517860  0.13002169    -0.97100
O695        O  0.69423501  0.09470677  0.10837288    -0.54300
O696        O  0.68366066  0.18136672  0.09738157    -0.73700
C697        C  0.68732077  0.20660040  0.08457328     0.98700
O698        O  0.57781814  0.17767587  0.04652095    -0.62500
O699        O  0.55972704  0.95017999  0.05175342    -0.57300
O700        O  0.57035213  0.09667533  0.04333638    -0.94000
O701        O  0.58011192  0.02899336  0.04584192    -0.92400
O702        O  0.42070180  0.94611188  0.05106847    -0.92700
O703        O  0.40062663  0.02004293  0.05209878    -0.91500
C704        C  0.57612251  0.06146762  0.03730643     1.17500
H705        H  0.46774924  0.92688584  0.08127269     0.33500
H706        H  0.46343621  0.10118365  0.07649388     0.44300
H707        H  0.64745958  0.10685839  0.07523310     0.37800
H708        H  0.53945759  0.06355256  0.13196920     0.34300
H709        H  0.34870792  0.98165686  0.09226621     0.26100
H710        H  0.49401834  0.15390137  0.13742488     0.32100
H711        H  0.63004363  0.19055688  0.12461082     0.38000
H712        H  0.38391162  0.92478550  0.05048147     0.32400
H713        H  0.57320332  0.92893323  0.05562407     0.31300
H714        H  0.66616680  0.03339030  0.06402044     0.33000
H715        H  0.72163499  0.12692193  0.11247831     0.31900
H716        H  0.40978918  0.05518906  0.05398092     0.35900
H717        H  0.54483373  0.17433759  0.04422235     0.28700
H718        H  0.48277555  0.92719058  0.14383794     0.32900
H719        H  0.61976523  0.05063395  0.13763080     0.35800
H720        H  0.52336142  0.92742327  0.05048999     0.28400
H721        H  0.59933383  0.21275506  0.04999801     0.41200
H722        H  0.41458656  0.11956310  0.11858521     0.31300
H723        H  0.37095527  0.03441546  0.08423361     0.38900
H724        H  0.70165172  0.09492584  0.09669494     0.30800
H725        H  0.52848279  0.13179059  0.14165274     0.30800
H726        H  0.53522529  0.97604551  0.14358734     0.31100
Zr727      Zr  0.24319815  0.85154677  0.22471073     2.17500
O728        O  0.22278010  0.80205503  0.19997035    -0.51300
O729        O  0.32725820  0.86586271  0.22870667    -0.74500
O730        O  0.29096373  0.90514966  0.20228404    -0.81300
O731        O  0.18888816  0.74320346  0.25467978    -0.83000
O732        O  0.28244321  0.97418416  0.20216640    -0.78600
O733        O  0.22858611  0.76787738  0.23033234    -0.90300
O734        O  0.35810054  0.91345736  0.25121870    -0.76200
O735        O  0.28597785  0.93694056  0.23242804    -0.85700
O736        O  0.25444219  0.85194835  0.25326624    -0.85400
O737        O  0.19007624  0.88423617  0.21678929    -0.72200
O738        O  0.16075709  0.80502328  0.23592781    -0.84300
Zr739      Zr  0.16413113  0.92494177  0.26624696     2.26400
Zr740      Zr  0.23248185  0.96939412  0.22563430     2.06300
Zr741      Zr  0.17279411  0.80737683  0.26460681     2.10000
Zr742      Zr  0.29860118  0.93756143  0.26069733     1.78800
O743        O  0.09252192  0.73038656  0.26567761    -0.93100
O744        O  0.36464708  0.01665474  0.24992907    -0.40900
O745        O  0.21788024  0.89269279  0.27310050    -0.77500
O746        O  0.24616233  0.97192101  0.25435954    -0.96200
O747        O  0.15147216  0.92473122  0.23759513    -0.89500
O748        O  0.11914474  0.83971400  0.25799901    -0.92400
C749        C  0.36165178  0.88843730  0.23939505     1.01400
C750        C  0.20890709  0.73637379  0.24204992     1.14300
C751        C  0.29969027  0.94725204  0.19642504     1.05100
O752        O  0.30353021  0.05310238  0.22213896    -0.94500
O753        O  0.21568860  0.03298097  0.23625740    -0.90300
O754        O  0.18354432  0.01055542  0.26171319    -0.83400
C755        C  0.19926376  0.04080331  0.24961466     1.11700
O756        O  0.08572437  0.78801605  0.20497958    -0.96500
Zr757      Zr  0.10919218  0.83988023  0.22921764     1.88900
O758        O  0.07576455  0.90005526  0.26342641    -0.73100
O759        O  0.18678976  0.97936961  0.20314856    -0.52400
O760        O  0.08244451  0.87176541  0.20656218    -0.97100
O761        O  0.04064815  0.75517058  0.23357527    -0.54300
O762        O  0.04511703  0.85409490  0.24040393    -0.73700
C763        C  0.04099173  0.87645825  0.25287202     0.98700
O764        O  0.16096809  0.97587848  0.28827571    -0.62500
O765        O  0.20971453  0.78736758  0.28746993    -0.57300
O766        O  0.16170849  0.89099810  0.29361731    -0.94000
O767        O  0.14353547  0.81062434  0.29134448    -0.92400
O768        O  0.33342898  0.91687181  0.28401909    -0.92700
O769        O  0.32585575  0.99817023  0.28269672    -0.91500
C770        C  0.15117067  0.84845962  0.29973687     1.17500
H771        H  0.27284045  0.83550195  0.25627288     0.33500
H772        H  0.26295062  0.00608961  0.25806280     0.44300
H773        H  0.08772618  0.82131518  0.26360590     0.37800
H774        H  0.18639561  0.88269634  0.20511681     0.34300
H775        H  0.38955241  0.03160320  0.25877045     0.26100
H776        H  0.20919058  0.01364113  0.19909427     0.32100
H777        H  0.08690607  0.90401198  0.21042167     0.38000
H778        H  0.37001377  0.93926574  0.28314717     0.32400
H779        H  0.19434844  0.75061329  0.28728057     0.31300
H780        H  0.09867500  0.70755548  0.27247672     0.33000
H781        H  0.01123754  0.75465435  0.22856282     0.31900
H782        H  0.29825217  0.00525518  0.28419908     0.35900
H783        H  0.13181838  0.95332971  0.29503104     0.28700
H784        H  0.25393548  0.80228212  0.19705424     0.32900
H785        H  0.11471752  0.78354167  0.20280393     0.35800
H786        H  0.24503092  0.80057356  0.28438721     0.28400
H787        H  0.19060569  0.98469440  0.29514724     0.41200
H788        H  0.32008936  0.06186847  0.23289510     0.31300
H789        H  0.38140107  0.00750541  0.24151034     0.38900
H790        H  0.03405133  0.75280957  0.24537994     0.30800
H791        H  0.18689488  0.95742150  0.19446152     0.30800
H792        H  0.21851714  0.82218204  0.19141542     0.31100
Zr793      Zr  0.81941285  0.63080721  0.77892159     2.17500
O794        O  0.83588571  0.59566760  0.80313476    -0.51300
O795        O  0.73693116  0.55896346  0.77318238    -0.74500
O796        O  0.77626869  0.63723694  0.80259783    -0.81300
O797        O  0.89090071  0.58950058  0.75227312    -0.83000
O798        O  0.77335542  0.70897026  0.80104108    -0.78600
O799        O  0.84271717  0.56748882  0.77494400    -0.90300
O800        O  0.70575549  0.57556140  0.75047051    -0.76200
O801        O  0.77343421  0.66962828  0.77041935    -0.85700
O802        O  0.81141167  0.62082199  0.75026031    -0.85400
O803        O  0.86848002  0.71674452  0.78705644    -0.72200
O804        O  0.90332778  0.67128105  0.76867694    -0.84300
Zr805      Zr  0.89740947  0.78692366  0.73793949     2.26400
Zr806      Zr  0.82294977  0.75582280  0.77756817     2.06300
Zr807      Zr  0.89482148  0.66282568  0.73996308     2.10000
Zr808      Zr  0.76519720  0.65978378  0.74188440     1.78800
O809        O  0.98160702  0.68432516  0.73674988    -0.93100
O810        O  0.69166877  0.66515426  0.74936165    -0.40900
O811        O  0.84764731  0.70068101  0.73087875    -0.77500
O812        O  0.81343943  0.74698081  0.74861886    -0.96200
O813        O  0.90547291  0.79646129  0.76666829    -0.89500
O814        O  0.94462410  0.74927926  0.74677797    -0.92400
C815        C  0.70315954  0.54715167  0.76221010     1.01400
C816        C  0.86918465  0.56063938  0.76440831     1.14300
C817        C  0.76203826  0.66713656  0.80784757     1.05100
O818        O  0.74852480  0.76379114  0.77828181    -0.94500
O819        O  0.83946848  0.83737493  0.76822751    -0.90300
O820        O  0.87701726  0.85236708  0.74353960    -0.83400
C821        C  0.85871104  0.86453430  0.75552437     1.11700
O822        O  0.97220811  0.72650579  0.79985055    -0.96500
Zr823      Zr  0.95092075  0.75773299  0.77565781     1.88900
O824        O  0.98458762  0.85256871  0.74169372    -0.73100
O825        O  0.86443917  0.81138733  0.80033063    -0.52400
O826        O  0.97001197  0.81520658  0.79822343    -0.97100
O827        O  0.02539787  0.75085274  0.77170900    -0.54300
O828        O  0.01210468  0.83946208  0.76582691    -0.73700
C829        C  0.01710521  0.86575366  0.75316882     0.98700
O830        O  0.90105062  0.84327791  0.71649143    -0.62500
O831        O  0.86988340  0.59797642  0.71937908    -0.57300
O832        O  0.90429322  0.75928775  0.71030739    -0.94000
O833        O  0.90734707  0.68753881  0.71198128    -0.92400
O834        O  0.75056322  0.61223976  0.71696756    -0.92700
O835        O  0.72861725  0.68366034  0.71987156    -0.91500
C836        C  0.90710231  0.72270392  0.70389673     1.17500
H837        H  0.79510057  0.58610173  0.74716851     0.33500
H838        H  0.79605197  0.76357101  0.74466883     0.44300
H839        H  0.97682962  0.76432360  0.74154533     0.37800
H840        H  0.87110628  0.71856603  0.79875288     0.34300
H841        H  0.66406770  0.63023319  0.75034779     0.26100
H842        H  0.83961215  0.81999052  0.80439873     0.32100
H843        H  0.00688639  0.83318269  0.79915854     0.38000
H844        H  0.75258081  0.58247354  0.72022326     0.32400
H845        H  0.83399840  0.57457605  0.72138952     0.31300
H846        H  0.98002445  0.65219306  0.73444933     0.33000
H847        H  0.03770039  0.76449966  0.76073201     0.31900
H848        H  0.74167143  0.71983831  0.72136873     0.35900
H849        H  0.93324486  0.85461424  0.71087901     0.28700
H850        H  0.80270627  0.57158225  0.80762887     0.32900
H851        H  0.00632286  0.75272118  0.80297489     0.35800
H852        H  0.88677264  0.57892506  0.72216962     0.28400
H853        H  0.87499866  0.82231776  0.70848658     0.41200
H854        H  0.74685385  0.77385798  0.78955670     0.31300
H855        H  0.69782302  0.67798889  0.76061901     0.38900
H856        H  0.01269737  0.71458787  0.77065694     0.30800
H857        H  0.86663937  0.79005867  0.80888782     0.30800
H858        H  0.85078697  0.62331890  0.81108856     0.31100
Zr859      Zr  0.56211834  0.50134052  0.88943748     2.17500
O860        O  0.53748927  0.44857975  0.86546849    -0.51300
O861        O  0.64567958  0.51396052  0.89358802    -0.74500
O862        O  0.60911401  0.55641925  0.86717223    -0.81300
O863        O  0.50504429  0.38770423  0.91555683    -0.83000
O864        O  0.60958799  0.62972326  0.86978244    -0.78600
O865        O  0.54972867  0.41761239  0.89233716    -0.90300
O866        O  0.67380863  0.55650002  0.91733561    -0.76200
O867        O  0.60566044  0.58510919  0.89906961    -0.85700
O868        O  0.57054200  0.49506083  0.91794005    -0.85400
O869        O  0.51097990  0.53712250  0.88212499    -0.72200
O870        O  0.47815923  0.45411810  0.89959145    -0.84300
Zr871      Zr  0.48066500  0.56871803  0.93216001     2.26400
Zr872      Zr  0.55458313  0.62067644  0.89259861     2.06300
Zr873      Zr  0.48751104  0.44916085  0.92816124     2.10000
Zr874      Zr  0.61407202  0.57888181  0.92742668     1.78800
O875        O  0.40255405  0.37874231  0.92868836    -0.93100
O876        O  0.69018281  0.65780727  0.92215143    -0.40900
O877        O  0.53190957  0.53296848  0.93831483    -0.77500
O878        O  0.56442043  0.61669604  0.92143544    -0.96200
O879        O  0.47195414  0.57554655  0.90359052    -0.89500
O880        O  0.43540199  0.48461342  0.92243478    -0.92400
C881        C  0.67801487  0.53348126  0.90505123     1.01400
C882        C  0.52723666  0.38319869  0.90301643     1.14300
C883        C  0.62278497  0.60121161  0.86258939     1.05100
O884        O  0.62352080  0.70582393  0.89041748    -0.94500
O885        O  0.54041337  0.68478280  0.90474409    -0.90300
O886        O  0.50041458  0.65508204  0.92881958    -0.83400
C887        C  0.52075627  0.68927936  0.91794098     1.11700
O888        O  0.40091663  0.43733642  0.87027376    -0.96500
Zr889      Zr  0.42862026  0.49233472  0.89377680     1.88900
O890        O  0.39259355  0.54491815  0.92953988    -0.73100
O891        O  0.51201925  0.63350214  0.86970870    -0.52400
O892        O  0.40944078  0.52809083  0.87034901    -0.97100
O893        O  0.35107127  0.41379744  0.89796722    -0.54300
O894        O  0.37007000  0.51648103  0.90380555    -0.73700
C895        C  0.36266859  0.53205612  0.91734235     0.98700
O896        O  0.47584497  0.61825950  0.95434816    -0.62500
O897        O  0.50409620  0.40053427  0.94798548    -0.57300
O898        O  0.47513574  0.53228270  0.95927804    -0.94000
O899        O  0.47742817  0.46048693  0.95677547    -0.92400
O900        O  0.62910740  0.54303426  0.95165067    -0.92700
O901        O  0.64265874  0.63522279  0.95060088    -0.91500
C902        C  0.47485925  0.49366850  0.96534438     1.17500
H903        H  0.58817982  0.47756764  0.92058602     0.33500
H904        H  0.58127326  0.64987805  0.92599689     0.44300
H905        H  0.40321992  0.46586056  0.92765287     0.37800
H906        H  0.50838724  0.53791266  0.87044893     0.34300
H907        H  0.69756881  0.65650168  0.91053275     0.26100
H908        H  0.50600598  0.66060027  0.87323148     0.32100
H909        H  0.37254913  0.51202150  0.87027800     0.38000
H910        H  0.66591442  0.55923359  0.95247393     0.32400
H911        H  0.47994112  0.36510064  0.94557678     0.31300
H912        H  0.39419234  0.37264993  0.94037303     0.33000
H913        H  0.33596940  0.41862964  0.90787819     0.31900
H914        H  0.61158005  0.62940593  0.95596162     0.35900
H915        H  0.44405669  0.59626173  0.96001633     0.28700
H916        H  0.56915560  0.45761002  0.85985261     0.32900
H917        H  0.42896302  0.43152022  0.86792398     0.35800
H918        H  0.53716528  0.40509206  0.94506275     0.28400
H919        H  0.50250072  0.62357827  0.96215337     0.41200
H920        H  0.64912669  0.70703323  0.89794000     0.31300
H921        H  0.67994754  0.68339724  0.92264566     0.38900
H922        H  0.36173775  0.38973229  0.90121879     0.30800
H923        H  0.53779512  0.64900075  0.86115838     0.30800
H924        H  0.52028843  0.46138121  0.85847926     0.31100
Zr925      Zr  0.44152443  0.23737520  0.77881383     2.17500
O926        O  0.47173934  0.28527685  0.80382520    -0.51300
O927        O  0.51070650  0.22363998  0.77418122    -0.74500
O928        O  0.43626248  0.18176990  0.80065607    -0.81300
O929        O  0.49453251  0.35022498  0.75176114    -0.83000
O930        O  0.36031825  0.11075068  0.79930351    -0.78600
O931        O  0.51223353  0.32107447  0.77471504    -0.90300
O932        O  0.49593644  0.18189696  0.75042720    -0.76200
O933        O  0.40302825  0.15466701  0.76832551    -0.85700
O934        O  0.45321052  0.24614400  0.75015316    -0.85400
O935        O  0.35524015  0.19836471  0.78675893    -0.72200
O936        O  0.40259821  0.28431567  0.77027012    -0.84300
Zr937      Zr  0.28881805  0.16980678  0.73713802     2.26400
Zr938      Zr  0.31665588  0.11626978  0.77531663     2.06300
Zr939      Zr  0.41258187  0.29065912  0.74146708     2.10000
Zr940      Zr  0.41475487  0.16338252  0.73986601     1.78800
O941        O  0.39028557  0.35552769  0.74356636    -0.93100
O942        O  0.40349315  0.07995454  0.74257067    -0.40900
O943        O  0.37556984  0.20831294  0.73051751    -0.77500
O944        O  0.32717227  0.12262468  0.74637325    -0.96200
O945        O  0.27706815  0.16090784  0.76581017    -0.89500
O946        O  0.32582971  0.25241826  0.74798729    -0.92400
C947        C  0.52311554  0.20349421  0.76294364     1.01400
C948        C  0.52287450  0.35436431  0.76370545     1.14300
C949        C  0.40347356  0.13831749  0.80581311     1.05100
O950        O  0.31518728  0.03714008  0.77296619    -0.94500
O951        O  0.23392808  0.05595388  0.76548060    -0.90300
O952        O  0.22050166  0.08432653  0.74153934    -0.83400
C953        C  0.20716631  0.05168510  0.75296500     1.11700
O954        O  0.33864814  0.28251463  0.80329561    -0.96500
Zr955      Zr  0.31522440  0.24254938  0.77678638     1.88900
O956        O  0.22550373  0.19422811  0.74087706    -0.73100
O957        O  0.25709392  0.08823648  0.79762538    -0.52400
O958        O  0.25281115  0.19820384  0.79772337    -0.97100
O959        O  0.32507084  0.32559747  0.77681164    -0.54300
O960        O  0.23707079  0.22990260  0.76578894    -0.73700
C961        C  0.21257967  0.21295035  0.75252869     0.98700
O962        O  0.23475255  0.12023502  0.71482787    -0.62500
O963        O  0.46738167  0.34982170  0.72098574    -0.57300
O964        O  0.31869263  0.20878769  0.71011567    -0.94000
O965        O  0.39307437  0.28017399  0.71292215    -0.92400
O966        O  0.47511310  0.20124897  0.71798977    -0.92700
O967        O  0.38785184  0.12126222  0.71376111    -0.91500
C968        C  0.35734996  0.24761029  0.70422804     1.17500
H969        H  0.48813849  0.26400125  0.74720752     0.33500
H970        H  0.31033320  0.08980500  0.74155201     0.44300
H971        H  0.31142775  0.27108237  0.74334199     0.37800
H972        H  0.35276434  0.19630156  0.79845182     0.34300
H973        H  0.40927173  0.07683761  0.75423922     0.26100
H974        H  0.26105026  0.06214357  0.80328340     0.32100
H975        H  0.22471856  0.16984673  0.79204425     0.38000
H976        H  0.49310187  0.18230456  0.71767150     0.32400
H977        H  0.47731488  0.38344885  0.72521718     0.31300
H978        H  0.41701872  0.38165281  0.75035154     0.33000
H979        H  0.29356694  0.32088037  0.78151833     0.31900
H980        H  0.36427250  0.13136716  0.70945214     0.35900
H981        H  0.22484143  0.14216068  0.70912198     0.28700
H982        H  0.50030572  0.28131865  0.80724481     0.32900
H983        H  0.37442245  0.29290608  0.80449489     0.35800
H984        H  0.49836579  0.34783886  0.72114412     0.28400
H985        H  0.25653162  0.11550333  0.70711713     0.41200
H986        H  0.28648246  0.01356177  0.77970022     0.31300
H987        H  0.36729207  0.05686073  0.74100390     0.38900
H988        H  0.32329318  0.33310865  0.76524154     0.30800
H989        H  0.27059034  0.11663088  0.80528211     0.30800
H990        H  0.44543012  0.26633120  0.81197527     0.31100
Zr991      Zr  0.55923242  0.10846977  0.89130179     2.17500
O992        O  0.60501468  0.12935510  0.86578387    -0.51300
O993        O  0.54677246  0.18004691  0.89372920    -0.74500
O994        O  0.50820246  0.10195920  0.86792271    -0.81300
O995        O  0.66679837  0.16122717  0.92073199    -0.83000
O996        O  0.43281466  0.03083252  0.87048119    -0.78600
O997        O  0.64389151  0.17639314  0.89601193    -0.90300
O998        O  0.49606465  0.16449304  0.91546691    -0.76200
O999        O  0.47486401  0.07157116  0.90000121    -0.85700
O1000       O  0.56249275  0.12252255  0.91983848    -0.85400
O1001       O  0.52123337  0.02147580  0.88446583    -0.72200
O1002       O  0.60312820  0.06951372  0.90275470    -0.84300
Zr1003     Zr  0.48121096  0.95768389  0.93413725     2.26400
Zr1004     Zr  0.43703288  0.98481203  0.89392106     2.06300
Zr1005     Zr  0.60330357  0.08121222  0.93140406     2.10000
Zr1006     Zr  0.47809025  0.08564275  0.92826591     1.78800
O1007       O  0.67204886  0.06408100  0.93142259    -0.93100
O1008       O  0.39490397  0.07362805  0.92394383    -0.40900
O1009       O  0.51859148  0.04484423  0.94031309    -0.77500
O1010       O  0.43812366  0.99765572  0.92262146    -0.96200
O1011       O  0.47852033  0.94437967  0.90556478    -0.89500
O1012       O  0.56622515  0.99406739  0.92560906    -0.92400
C1013       C  0.52175356  0.19177690  0.90340736     1.01400
C1014       C  0.67452646  0.18792536  0.90795278     1.14300
C1015       C  0.46334525  0.07165169  0.86320033     1.05100
O1016       O  0.35484468  0.97728962  0.89287894    -0.94500
O1017       O  0.37125189  0.90562888  0.90435609    -0.90300
O1018       O  0.39489662  0.89240741  0.92917423    -0.83400
C1019       C  0.36355579  0.87984628  0.91737941     1.11700
O1020       O  0.61053445  0.00667013  0.87172070    -0.96500
Zr1021     Zr  0.56298375  0.98197097  0.89689143     1.88900
O1022       O  0.50275024  0.89159094  0.93221425    -0.73100
O1023       O  0.42157621  0.92949833  0.87094459    -0.52400
O1024       O  0.52665370  0.91833707  0.87587509    -0.97100
O1025       O  0.64616920  0.99277139  0.89996779    -0.54300
O1026       O  0.54683889  0.90388130  0.90899570    -0.73700
C1027       C  0.52484166  0.87858180  0.92173362     0.98700
O1028       O  0.42698689  0.90442266  0.95583863    -0.62500
O1029       O  0.64634541  0.13879162  0.95369628    -0.57300
O1030       O  0.51523274  0.98582399  0.96162082    -0.94000
O1031       O  0.59045415  0.05692270  0.95969478    -0.92400
O1032       O  0.51685703  0.14365759  0.95074009    -0.92700
O1033       O  0.42496689  0.06426221  0.95207882    -0.91500
C1034       C  0.55487646  0.02226081  0.96792091     1.17500
H1035       H  0.58031878  0.15768267  0.92238083     0.33500
H1036       H  0.40430640  0.98195499  0.92666488     0.44300
H1037       H  0.58360898  0.97983685  0.93124282     0.37800
H1038       H  0.52154681  0.01810203  0.87281245     0.34300
H1039       H  0.39751599  0.10546194  0.92738401     0.26100
H1040       H  0.38654171  0.91795245  0.86779058     0.32100
H1041       H  0.49303802  0.89389054  0.87996638     0.38000
H1042       H  0.54007999  0.17609264  0.94560632     0.32400
H1043       H  0.68223703  0.15711141  0.95084016     0.31300
H1044       H  0.69078832  0.07965206  0.94152552     0.33000
H1045       H  0.64391218  0.96285003  0.89480369     0.31900
H1046       H  0.40443084  0.02739391  0.95178934     0.35900
H1047       H  0.44666790  0.89227277  0.96182657     0.28700
H1048       H  0.63437821  0.12550651  0.86799557     0.32900
H1049       H  0.63104263  0.04348078  0.87236592     0.35800
H1050       H  0.63543969  0.16382949  0.95299731     0.28400
H1051       H  0.42285388  0.92667676  0.96349934     0.41200
H1052       H  0.33801133  0.95535519  0.88345845     0.31300
H1053       H  0.39091073  0.07287474  0.91199972     0.38900
H1054       H  0.64937729  0.98808097  0.91169861     0.30800
H1055       H  0.44163687  0.95151837  0.86190850     0.30800
H1056       H  0.61884417  0.16571300  0.86438397     0.31100
Zr1057     Zr  0.94206355  0.48845687  0.89411358     2.17500
O1058       O  0.90236813  0.50030575  0.87027718    -0.51300
O1059       O  0.87504383  0.40396654  0.89882276    -0.74500
O1060       O  0.95307119  0.44678684  0.87079927    -0.81300
O1061       O  0.88531008  0.54360122  0.92241636    -0.83000
O1062       O  0.02911978  0.45223930  0.87233987    -0.78600
O1063       O  0.87249568  0.50291867  0.89836270    -0.90300
O1064       O  0.89430558  0.37448065  0.92141872    -0.76200
O1065       O  0.98598875  0.44779164  0.90293761    -0.85700
O1066       O  0.93079287  0.47868529  0.92266040    -0.85400
O1067       O  0.02731585  0.54295516  0.88616406    -0.72200
O1068       O  0.97598380  0.57154625  0.90457350    -0.84300
Zr1069     Zr  0.09627521  0.57490573  0.93541692     2.26400
Zr1070     Zr  0.07144745  0.50259015  0.89590480     2.06300
Zr1071     Zr  0.96598024  0.56103247  0.93322257     2.10000
Zr1072     Zr  0.97519126  0.43864115  0.93147645     1.78800
O1073       O  0.96111630  0.63708125  0.93437173    -0.93100
O1074       O  0.98750485  0.36830586  0.92577504    -0.40900
O1075       O  0.01037995  0.52072463  0.94274212    -0.77500
O1076       O  0.06142917  0.49193058  0.92466381    -0.96200
O1077       O  0.10687745  0.58486827  0.90673829    -0.89500
O1078       O  0.05194783  0.61562428  0.92656299    -0.92400
C1079       C  0.86541838  0.37030659  0.90955503     1.01400
C1080       C  0.85946343  0.52281443  0.90958387     1.14300
C1081       C  0.98661699  0.43745027  0.86553152     1.05100
O1082       O  0.08273777  0.43030677  0.89738897    -0.94500
O1083       O  0.15491311  0.52580188  0.90523778    -0.90300
O1084       O  0.16663780  0.56089959  0.93028809    -0.83400
C1085       C  0.18056717  0.54421772  0.91825818     1.11700
O1086       O  0.02617543  0.64878575  0.87576179    -0.96500
Zr1087     Zr  0.06213250  0.62457523  0.89790473     1.88900
O1088       O  0.16180030  0.66186302  0.93137215    -0.73100
O1089       O  0.12348892  0.53958660  0.87203719    -0.52400
O1090       O  0.11253265  0.64371991  0.87347225    -0.97100
O1091       O  0.05549383  0.69893691  0.90238490    -0.54300
O1092       O  0.14379065  0.68731710  0.90764124    -0.73700
C1093       C  0.17239656  0.69374151  0.91982260     0.98700
O1094       O  0.13860908  0.56000372  0.95795721    -0.62500
O1095       O  0.90684027  0.51870014  0.95517412    -0.57300
O1096       O  0.07384617  0.59622509  0.96163826    -0.94000
O1097       O  0.00265688  0.59927708  0.95879353    -0.92400
O1098       O  0.92127695  0.41638523  0.95517076    -0.92700
O1099       O  0.00614865  0.41298388  0.95466410    -0.91500
C1100       C  0.03912892  0.60339948  0.96733997     1.17500
H1101       H  0.89589954  0.45951778  0.92546402     0.33500
H1102       H  0.08005985  0.47672416  0.92869816     0.44300
H1103       H  0.06467415  0.64746306  0.93188497     0.37800
H1104       H  0.02951468  0.54578386  0.87447134     0.34300
H1105       H  0.97566150  0.35852782  0.91447391     0.26100
H1106       H  0.14899865  0.57353328  0.87552531     0.32100
H1107       H  0.12482186  0.67954765  0.87139950     0.38000
H1108       H  0.93898496  0.44489042  0.96270338     0.32400
H1109       H  0.88300140  0.53114037  0.95447305     0.31300
H1110       H  0.93587754  0.63044334  0.94284072     0.33000
H1111       H  0.08682147  0.72684160  0.89795071     0.31900
H1112       H  0.03713485  0.44360323  0.95794808     0.35900
H1113       H  0.16248978  0.59342049  0.96227539     0.28700
H1114       H  0.88485752  0.46762106  0.86469978     0.32900
H1115       H  0.99462296  0.61794486  0.87305738     0.35800
H1116       H  0.88712397  0.48332114  0.95186528     0.28400
H1117       H  0.11333300  0.54340609  0.96659383     0.41200
H1118       H  0.10698999  0.43573183  0.88869640     0.31300
H1119       H  0.02416494  0.38288047  0.92511707     0.38900
H1120       H  0.05839771  0.70443445  0.91426123     0.30800
H1121       H  0.14207960  0.52143840  0.87079687     0.30800
H1122       H  0.93039500  0.52230334  0.86307559     0.31100
Zr1123     Zr  0.83717797  0.26092148  0.77803654     2.17500
O1124       O  0.78563066  0.25087765  0.80168646    -0.51300
O1125       O  0.85307295  0.34448672  0.77146561    -0.74500
O1126       O  0.88673509  0.30366284  0.80171782    -0.81300
O1127       O  0.72534602  0.19774067  0.75051354    -0.83000
O1128       O  0.95915913  0.30166044  0.80100009    -0.78600
O1129       O  0.75021185  0.23771899  0.77466279    -0.90300
O1130       O  0.90780300  0.37636867  0.75048181    -0.76200
O1131       O  0.92256838  0.30236752  0.77017829    -0.85700
O1132       O  0.83735806  0.26969985  0.74932968    -0.85400
O1133       O  0.86914637  0.20815866  0.78710350    -0.72200
O1134       O  0.78961718  0.17748107  0.76786675    -0.84300
Zr1135     Zr  0.90822126  0.17469367  0.73887926     2.26400
Zr1136     Zr  0.95438061  0.24920734  0.77823434     2.06300
Zr1137     Zr  0.79155046  0.18655513  0.73912597     2.10000
Zr1138     Zr  0.92309427  0.31078069  0.74159097     1.78800
O1139       O  0.72061286  0.10250392  0.73626414    -0.93100
O1140       O  0.00507877  0.37855293  0.74953673    -0.40900
O1141       O  0.87708639  0.22845430  0.73056074    -0.77500
O1142       O  0.95627627  0.25847781  0.74930399    -0.96200
O1143       O  0.90842361  0.16623311  0.76767628    -0.89500
O1144       O  0.82278568  0.13253781  0.74685736    -0.92400
C1145       C  0.88019714  0.37953779  0.76141655     1.01400
C1146       C  0.71740690  0.21561491  0.76349639     1.14300
C1147       C  0.92998555  0.31538580  0.80731764     1.05100
O1148       O  0.03820269  0.31937567  0.78250095    -0.94500
O1149       O  0.02046635  0.23554931  0.76773957    -0.90300
O1150       O  0.99319400  0.19320006  0.74392494    -0.83400
C1151       C  0.02613990  0.21454718  0.75510137     1.11700
O1152       O  0.76337236  0.10505332  0.79771694    -0.96500
Zr1153     Zr  0.82312369  0.12573974  0.77572105     1.88900
O1154       O  0.88313894  0.08684862  0.74316926    -0.73100
O1155       O  0.96299166  0.20463495  0.80128227    -0.52400
O1156       O  0.84623653  0.10047319  0.80081520    -0.97100
O1157       O  0.74217322  0.05362773  0.76902383    -0.54300
O1158       O  0.84386148  0.06332756  0.76752539    -0.73700
C1159       C  0.86365157  0.05577706  0.75499875     0.98700
O1160       O  0.96116116  0.17029642  0.71777304    -0.62500
O1161       O  0.75836330  0.21818316  0.71824988    -0.57300
O1162       O  0.87370708  0.16408230  0.71136609    -0.94000
O1163       O  0.80113283  0.16590096  0.71179417    -0.92400
O1164       O  0.89685354  0.33590037  0.71712289    -0.92700
O1165       O  0.98378645  0.33734176  0.71967979    -0.91500
C1166       C  0.83543539  0.16218306  0.70444142     1.17500
H1167       H  0.82125657  0.28818700  0.74598698     0.33500
H1168       H  0.99030080  0.27433977  0.74547980     0.44300
H1169       H  0.80453707  0.10056714  0.74152815     0.37800
H1170       H  0.86790454  0.20588205  0.79880615     0.34300
H1171       H  0.01023331  0.40741299  0.74286329     0.26100
H1172       H  0.94464480  0.16906717  0.79808435     0.32100
H1173       H  0.82484753  0.06368354  0.80112709     0.38000
H1174       H  0.85994423  0.31828555  0.71774528     0.32400
H1175       H  0.72275448  0.19223965  0.71712945     0.31300
H1176       H  0.70710438  0.10191297  0.72529573     0.33000
H1177       H  0.73626515  0.02878780  0.77760336     0.31900
H1178       H  0.99789890  0.31487601  0.72032133     0.35900
H1179       H  0.94043334  0.13808119  0.71214945     0.28700
H1180       H  0.79697438  0.28502799  0.80571795     0.32900
H1181       H  0.77748155  0.13548660  0.80450374     0.35800
H1182       H  0.75781388  0.24700989  0.72320083     0.28400
H1183       H  0.96663402  0.19632164  0.70969172     0.41200
H1184       H  0.04273021  0.34329543  0.77376316     0.31300
H1185       H  0.00065434  0.38728208  0.76072046     0.38900
H1186       H  0.74763307  0.03905739  0.75910167     0.30800
H1187       H  0.99856394  0.21369587  0.80117582     0.30800
H1188       H  0.79611430  0.23510674  0.81012241     0.31100
C1189       C  0.97525137  0.40763543  0.85040836    -0.05300
C1190       C  0.95729008  0.42106438  0.83665546    -0.02400
C1191       C  0.94202905  0.39063472  0.82274670     0.02600
C1192       C  0.94728316  0.34779678  0.82199833    -0.05300
C1193       C  0.96874413  0.33635607  0.83535499    -0.02400
C1194       C  0.98182956  0.36562683  0.84960674     0.02600
C1195       C  0.95817035  0.46839502  0.83621733     0.37300
C1196       C  0.97666705  0.29400421  0.83464154     0.37200
C1197       C  0.00130934  0.35187683  0.86351961     0.35700
C1198       C  0.92260749  0.40510287  0.80902327     0.35700
N1199       N  0.01701584  0.34091453  0.87457255    -0.39200
N1200       N  0.90707045  0.41778903  0.79838898    -0.39200
N1201       N  0.98363497  0.26062051  0.83410043    -0.38600
N1202       N  0.95977381  0.50648999  0.83535737    -0.38600
C1203       C  0.31536189  0.83153949  0.91855560    -0.05300
C1204       C  0.28568838  0.81812351  0.93277064    -0.02400
C1205       C  0.23962246  0.77253859  0.93348138     0.02600
C1206       C  0.22211566  0.74058348  0.91983887    -0.05300
C1207       C  0.25201261  0.75405526  0.90569255    -0.02400
C1208       C  0.29851351  0.79859878  0.90515809     0.02600
C1209       C  0.30114014  0.85227718  0.94639734     0.37300
C1210       C  0.23540341  0.72173428  0.89157022     0.37200
C1211       C  0.32974338  0.80947413  0.89087557     0.35700
C1212       C  0.20927016  0.75979581  0.94800520     0.35700
N1213       N  0.35447103  0.81768279  0.87948114    -0.39200
N1214       N  0.18519981  0.74991678  0.95962737    -0.39200
N1215       N  0.22227332  0.69651816  0.88018596    -0.38600
N1216       N  0.31313951  0.87957169  0.95725362    -0.38600
C1217       C  0.81621341  0.32422955  0.90864909    -0.05300
C1218       C  0.80372972  0.29143803  0.89534047    -0.02400
C1219       C  0.75711712  0.24678826  0.89493032     0.02600
C1220       C  0.72199758  0.23612559  0.90743827    -0.05300
C1221       C  0.73354791  0.27057192  0.92021807    -0.02400
C1222       C  0.78097084  0.31369566  0.92106005     0.02600
C1223       C  0.83943997  0.30295529  0.88233880     0.37300
C1224       C  0.69605404  0.26254934  0.93226105     0.37200
C1225       C  0.79344785  0.34735757  0.93473107     0.35700
C1226       C  0.74642459  0.21086093  0.88208661     0.35700
N1227       N  0.80360067  0.37375285  0.94576453    -0.39200
N1228       N  0.73837049  0.18216878  0.87188067    -0.39200
N1229       N  0.66619629  0.25682809  0.94178033    -0.38600
N1230       N  0.86787603  0.31232771  0.87193925    -0.38600
C1231       C  0.07406376  0.21471465  0.75318321    -0.05300
C1232       C  0.07393620  0.16945662  0.75060978    -0.02400
C1233       C  0.11940540  0.16937728  0.74923514     0.02600
C1234       C  0.16537012  0.21424723  0.75098091    -0.05300
C1235       C  0.16552067  0.25971292  0.75278877    -0.02400
C1236       C  0.12008106  0.26002029  0.75362002     0.02600
C1237       C  0.02703297  0.12257083  0.74999752     0.37300
C1238       C  0.21243818  0.30655282  0.75326427     0.37200
C1239       C  0.12082344  0.30723316  0.75417579     0.35700
C1240       C  0.11879307  0.12283320  0.74642528     0.35700
N1241       N  0.12189560  0.34514338  0.75437948    -0.39200
N1242       N  0.11829935  0.08580882  0.74396880    -0.39200
N1243       N  0.24940915  0.34438138  0.75351746    -0.38600
N1244       N  0.98964856  0.08516386  0.74952401    -0.38600
C1245       C  0.66670911  0.21008164  0.76545281    -0.05300
C1246       C  0.62422673  0.16779863  0.75892059    -0.02400
C1247       C  0.57737718  0.16503198  0.75866804     0.02600
C1248       C  0.57214333  0.20511261  0.76451452    -0.05300
C1249       C  0.61375122  0.24579622  0.77219064    -0.02400
C1250       C  0.66004885  0.24713661  0.77325494     0.02600
C1251       C  0.62735880  0.12509493  0.75324326     0.37300
C1252       C  0.61005749  0.28736708  0.77873556     0.37200
C1253       C  0.70013952  0.28659444  0.78263392     0.35700
C1254       C  0.53422371  0.11930843  0.75302601     0.35700
N1255       N  0.73152449  0.31803533  0.79028654    -0.39200
N1256       N  0.50052066  0.08227755  0.74858093    -0.39200
N1257       N  0.60778637  0.32072423  0.78407299    -0.38600
N1258       N  0.62840174  0.09026539  0.74874443    -0.38600
C1259       C  0.41690580  0.11857061  0.82028504    -0.05300
C1260       C  0.38828824  0.10670267  0.83465583    -0.02400
C1261       C  0.40267021  0.09015395  0.84859891     0.02600
C1262       C  0.44575813  0.08528834  0.84826495    -0.05300
C1263       C  0.47338520  0.09561935  0.83374797    -0.02400
C1264       C  0.45923823  0.11246281  0.81987451     0.02600
C1265       C  0.34538498  0.11378648  0.83539904     0.37300
C1266       C  0.51563569  0.08743304  0.83289455     0.37200
C1267       C  0.48791404  0.12237038  0.80506835     0.35700
C1268       C  0.37421310  0.08015301  0.86348423     0.35700
N1269       N  0.51131458  0.12980618  0.79339990    -0.39200
N1270       N  0.35142243  0.07221422  0.87533307    -0.39200
N1271       N  0.54914354  0.08067320  0.83209271    -0.38600
N1272       N  0.31123980  0.11953338  0.83616799    -0.38600
C1273       C  0.81113944  0.52192634  0.90759363    -0.05300
C1274       C  0.80156098  0.54224707  0.89351010    -0.02400
C1275       C  0.75759828  0.54548533  0.89236503     0.02600
C1276       C  0.72208112  0.52651311  0.90498963    -0.05300
C1277       C  0.72955738  0.50219131  0.91831958    -0.02400
C1278       C  0.77440681  0.50117740  0.91986663     0.02600
C1279       C  0.83759030  0.56126415  0.88039352     0.37300
C1280       C  0.69000970  0.47646564  0.93018373     0.37200
C1281       C  0.78188384  0.47782913  0.93404643     0.35700
C1282       C  0.74993946  0.57002474  0.87852518     0.35700
N1283       N  0.78663435  0.45914394  0.94557157    -0.39200
N1284       N  0.74415322  0.58983267  0.86748187    -0.39200
N1285       N  0.65810497  0.45544644  0.93945718    -0.38600
N1286       N  0.86612451  0.57609336  0.86986084    -0.38600
C1287       C  0.22941059  0.54530788  0.91923939    -0.05300
C1288       C  0.23838310  0.51853238  0.93150195    -0.02400
C1289       C  0.28174213  0.51387876  0.93096201     0.02600
C1290       C  0.31732810  0.53735832  0.91847957    -0.05300
C1291       C  0.30903323  0.56538739  0.90654342    -0.02400
C1292       C  0.26526359  0.56889869  0.90683093     0.02600
C1293       C  0.20174002  0.49352513  0.94420295     0.37300
C1294       C  0.34598818  0.59120577  0.89393908     0.37200
C1295       C  0.25730915  0.59690082  0.89419435     0.35700
C1296       C  0.28780172  0.48173377  0.94246938     0.35700
N1297       N  0.25162704  0.61913013  0.88391341    -0.39200
N1298       N  0.29241052  0.45545582  0.95144547    -0.39200
N1299       N  0.37556987  0.61170317  0.88393303    -0.38600
N1300       N  0.17251988  0.47363474  0.95435314    -0.38600
C1301       C  0.52560944  0.33423260  0.90081525    -0.05300
C1302       C  0.56904885  0.33175309  0.89713762    -0.02400
C1303       C  0.56772274  0.28519731  0.89724083     0.02600
C1304       C  0.52267376  0.24039627  0.90080254    -0.05300
C1305       C  0.47831645  0.24268645  0.90254589    -0.02400
C1306       C  0.47987397  0.28911899  0.90270481     0.02600
C1307       C  0.61544169  0.37704252  0.89345194     0.37300
C1308       C  0.43025936  0.19714715  0.90327571     0.37200
C1309       C  0.43367878  0.29029418  0.90403899     0.35700
C1310       C  0.61320581  0.28397710  0.89401650     0.35700
N1311       N  0.39689422  0.29136484  0.90495166    -0.39200
N1312       N  0.64955204  0.28330153  0.89128242    -0.39200
N1313       N  0.39136638  0.16144245  0.90358959    -0.38600
N1314       N  0.65241831  0.41290655  0.89025187    -0.38600
C1315       C  0.52441046  0.83043698  0.92392661    -0.05300
C1316       C  0.56917982  0.82910284  0.92221406    -0.02400
C1317       C  0.56802244  0.78313223  0.92048927     0.02600
C1318       C  0.52213294  0.73765442  0.92093198    -0.05300
C1319       C  0.47790289  0.73883363  0.92448895    -0.02400
C1320       C  0.47894578  0.78499723  0.92582322     0.02600
C1321       C  0.61688074  0.87506378  0.92301131     0.37300
C1322       C  0.43098605  0.69265422  0.92651008     0.37200
C1323       C  0.43291886  0.78556045  0.92864708     0.35700
C1324       C  0.61457235  0.78282558  0.91899190     0.35700
N1325       N  0.39627231  0.78602073  0.93100452    -0.39200
N1326       N  0.65212815  0.78331922  0.91799357    -0.39200
N1327       N  0.39347952  0.65604872  0.92839948    -0.38600
N1328       N  0.65525849  0.91125080  0.92396282    -0.38600
C1329       C  0.06361511  0.91533211  0.75215168    -0.05300
C1330       C  0.09536193  0.92877158  0.73849953    -0.02400
C1331       C  0.14164655  0.97413872  0.73842548     0.02600
C1332       C  0.15663786  0.00616505  0.75206844    -0.05300
C1333       C  0.12337308  0.99398171  0.76527685    -0.02400
C1334       C  0.07735980  0.94881523  0.76535592     0.02600
C1335       C  0.08142849  0.89470732  0.72488730     0.37300
C1336       C  0.13551824  0.02877592  0.77862423     0.37200
C1337       C  0.04378399  0.93724919  0.77903530     0.35700
C1338       C  0.17448086  0.98699197  0.72452799     0.35700
N1339       N  0.01731340  0.92833658  0.78999855    -0.39200
N1340       N  0.20061792  0.99736595  0.71340455    -0.39200
N1341       N  0.14444260  0.05630583  0.78927517    -0.38600
N1342       N  0.06983216  0.86708838  0.71413292    -0.38600
C1343       C  0.57078713  0.40186688  0.76465070    -0.05300
C1344       C  0.61161058  0.40915970  0.75503463    -0.02400
C1345       C  0.65475539  0.45687144  0.75404477     0.02600
C1346       C  0.65775065  0.49711187  0.76304686    -0.05300
C1347       C  0.61609885  0.49008593  0.77214719    -0.02400
C1348       C  0.57298109  0.44246386  0.77309124     0.02600
C1349       C  0.60863105  0.36773489  0.74588587     0.37300
C1350       C  0.61626033  0.53250826  0.77963445     0.37200
C1351       C  0.52983310  0.43547328  0.78218671     0.35700
C1352       C  0.69506094  0.46501451  0.74320180     0.35700
N1353       N  0.49512956  0.42949255  0.78935107    -0.39200
N1354       N  0.72707273  0.47126830  0.73453001    -0.39200
N1355       N  0.61603587  0.56631609  0.78550583    -0.38600
N1356       N  0.60613777  0.33456205  0.73864733    -0.38600
C1357       C  0.86106303  0.91408851  0.75495720    -0.05300
C1358       C  0.84618181  0.93002773  0.74092118    -0.02400
C1359       C  0.84749560  0.97650032  0.74078018     0.02600
C1360       C  0.86451777  0.00794474  0.75454574    -0.05300
C1361       C  0.88086426  0.99271800  0.76835134    -0.02400
C1362       C  0.87864013  0.94605433  0.76863130     0.02600
C1363       C  0.82734923  0.89772743  0.72684365     0.37300
C1364       C  0.90150710  0.02578717  0.78223867     0.37200
C1365       C  0.89574406  0.93180535  0.78303147     0.35700
C1366       C  0.82890666  0.99084707  0.72677405     0.35700
N1367       N  0.90937004  0.92109989  0.79465637    -0.39200
N1368       N  0.81391053  0.00257067  0.71571129    -0.39200
N1369       N  0.91807931  0.05207594  0.79330567    -0.38600
N1370       N  0.81228107  0.87196309  0.71560501    -0.38600
C1371       C  0.87322688  0.51491998  0.76564330    -0.05300
C1372       C  0.92014154  0.51766025  0.76432724    -0.02400
C1373       C  0.92283298  0.47348742  0.76343908     0.02600
C1374       C  0.87854686  0.42658726  0.76241328    -0.05300
C1375       C  0.83197490  0.42441701  0.76286859    -0.02400
C1376       C  0.82940235  0.46766185  0.76602851     0.02600
C1377       C  0.96578023  0.56577906  0.76437893     0.37300
C1378       C  0.78730987  0.37916591  0.75792292     0.37200
C1379       C  0.78169243  0.46292061  0.77007994     0.35700
C1380       C  0.97116233  0.47655126  0.76385459     0.35700
N1381       N  0.74393825  0.45863555  0.77409195    -0.39200
N1382       N  0.01004541  0.47972435  0.76434648    -0.39200
N1383       N  0.75245225  0.34369273  0.75313849    -0.38600
N1384       N  0.00238827  0.60397309  0.76435256    -0.38600
C1385       C  0.72808566  0.65091976  0.82231028    -0.05300
C1386       C  0.73164080  0.68563729  0.83415733    -0.02400
C1387       C  0.69668203  0.67048792  0.84704447     0.02600
C1388       C  0.65677875  0.62045405  0.84808449    -0.05300
C1389       C  0.65205336  0.58681084  0.83566780    -0.02400
C1390       C  0.68933304  0.60066147  0.82377969     0.02600
C1391       C  0.77340052  0.73637421  0.83392508     0.37300
C1392       C  0.60645641  0.53912349  0.83395447     0.37200
C1393       C  0.68783411  0.56197900  0.81347317     0.35700
C1394       C  0.70259233  0.70716288  0.85906841     0.35700
N1395       N  0.68701385  0.53039207  0.80576060    -0.39200
N1396       N  0.70860710  0.73790694  0.86825285    -0.39200
N1397       N  0.57003525  0.50164710  0.83180010    -0.38600
N1398       N  0.80654274  0.77691837  0.83420672    -0.38600
C1399       C  0.57289206  0.05404920  0.01936872    -0.05300
C1400       C  0.53096077  0.04933703  0.01087071    -0.02400
C1401       C  0.52291059  0.03433972  0.99446921     0.02600
C1402       C  0.55872570  0.02782978  0.98589920    -0.05300
C1403       C  0.60128905  0.03352095  0.99425276    -0.02400
C1404       C  0.60755363  0.04502949  0.01102058     0.02600
C1405       C  0.49539797  0.05944915  0.01897208     0.37300
C1406       C  0.63825721  0.02663698  0.98565188     0.37200
C1407       C  0.65031535  0.04860179  0.01956972     0.35700
C1408       C  0.47737870  0.02575181  0.98653923     0.35700
N1409       N  0.68436994  0.05120309  0.02636085    -0.39200
N1410       N  0.44011514  0.01817256  0.98074679    -0.39200
N1411       N  0.66785948  0.02127395  0.97880986    -0.38600
N1412       N  0.46730051  0.06836365  0.02518888    -0.38600
C1413       C  0.33303272  0.96627289  0.18213378    -0.05300
C1414       C  0.38292090  0.97678557  0.18345313    -0.02400
C1415       C  0.41382006  0.99103421  0.16962916     0.02600
C1416       C  0.39544115  0.99603141  0.15444567    -0.05300
C1417       C  0.34613825  0.98758571  0.15326401    -0.02400
C1418       C  0.31482931  0.97211418  0.16703929     0.02600
C1419       C  0.40295011  0.97412521  0.19914036     0.37300
C1420       C  0.32670360  0.99259157  0.13774602     0.37200
C1421       C  0.26313346  0.95975419  0.16548373     0.35700
C1422       C  0.46491861  0.00141838  0.17110754     0.35700
N1423       N  0.22181754  0.94951940  0.16413616    -0.39200
N1424       N  0.50563658  0.00962492  0.17231639    -0.39200
N1425       N  0.31071012  0.99640265  0.12544095    -0.38600
N1426       N  0.41937740  0.97256495  0.21162494    -0.38600
C1427       C  0.47218242  0.47946144  0.01811315    -0.05300
C1428       C  0.50149605  0.46598399  0.00854827    -0.02400
C1429       C  0.50327862  0.47163920  0.99147445     0.02600
C1430       C  0.47292050  0.48748279  0.98343974    -0.05300
C1431       C  0.43905229  0.49500874  0.99276804    -0.02400
C1432       C  0.43748661  0.48952556  0.00986522     0.02600
C1433       C  0.52605465  0.44141930  0.01600583     0.37300
C1434       C  0.40432775  0.50689933  0.98477560     0.37200
C1435       C  0.39698902  0.49016123  0.01848812     0.35700
C1436       C  0.53820674  0.46272237  0.98242396     0.35700
N1437       N  0.36334804  0.48915339  0.02496782    -0.39200
N1438       N  0.56660876  0.45550963  0.97558953    -0.39200
N1439       N  0.37648605  0.51639751  0.97855430    -0.38600
N1440       N  0.54436058  0.42029311  0.02175669    -0.38600
C1441       C  0.53944123  0.76173163  0.09642745    -0.05300
C1442       C  0.55785389  0.79355672  0.11007598    -0.02400
C1443       C  0.55490115  0.83775908  0.11062788     0.02600
C1444       C  0.53245163  0.84967530  0.09769280    -0.05300
C1445       C  0.51350473  0.81725670  0.08419240    -0.02400
C1446       C  0.51740821  0.77392553  0.08350222     0.02600
C1447       C  0.58169437  0.78190123  0.12322298     0.37300
C1448       C  0.48918892  0.82783339  0.07092971     0.37200
C1449       C  0.49791488  0.74145221  0.06945848     0.35700
C1450       C  0.57760505  0.87230107  0.12401644     0.35700
N1451       N  0.48264843  0.71609483  0.05814383    -0.39200
N1452       N  0.59625103  0.89999488  0.13464238    -0.39200
N1453       N  0.46967096  0.83530749  0.06017261    -0.38600
N1454       N  0.60081239  0.77270882  0.13370977    -0.38600
C1455       C  0.52262189  0.34225425  0.08472489    -0.05300
C1456       C  0.50416089  0.30900886  0.07141937    -0.02400
C1457       C  0.50485047  0.26355193  0.07182171     0.02600
C1458       C  0.52371735  0.25082581  0.08559106    -0.05300
C1459       C  0.54355001  0.28482224  0.09865208    -0.02400
C1460       C  0.54254757  0.32984992  0.09830024     0.02600
C1461       C  0.48217003  0.32035803  0.05765419     0.37300
C1462       C  0.56734951  0.27460197  0.11221127     0.37200
C1463       C  0.56284306  0.36366508  0.11197936     0.35700
C1464       C  0.48490901  0.22936349  0.05823097     0.35700
N1465       N  0.57874550  0.38989277  0.12307333    -0.39200
N1466       N  0.46916079  0.20219411  0.04734842    -0.39200
N1467       N  0.58666159  0.26647540  0.12289891    -0.38600
N1468       N  0.46436633  0.32929375  0.04670818    -0.38600
C1469       C  0.90078030  0.87521652  0.25272395    -0.05300
C1470       C  0.94618306  0.92074997  0.25462262    -0.02400
C1471       C  0.99198491  0.92105389  0.25562287     0.02600
C1472       C  0.99277325  0.87582622  0.25471325    -0.05300
C1473       C  0.94703318  0.83018191  0.25399805    -0.02400
C1474       C  0.90131018  0.82991555  0.25307529     0.02600
C1475       C  0.94614094  0.96756762  0.25512338     0.37300
C1476       C  0.94670372  0.78320229  0.25467866     0.37200
C1477       C  0.85456222  0.78284956  0.25311577     0.35700
C1478       C  0.03833557  0.96818537  0.25707311     0.35700
N1479       N  0.81731273  0.74527754  0.25333743    -0.39200
N1480       N  0.07509213  0.00589060  0.25840241    -0.39200
N1481       N  0.94564533  0.74533919  0.25535667    -0.38600
N1482       N  0.94663390  0.00515712  0.25565401    -0.38600
C1483       C  0.40858494  0.88534097  0.23811030    -0.05300
C1484       C  0.40778524  0.84275924  0.23129216    -0.02400
C1485       C  0.45186026  0.83952192  0.23064832     0.02600
C1486       C  0.49713336  0.87791046  0.23731388    -0.05300
C1487       C  0.49875334  0.92188487  0.24290204    -0.02400
C1488       C  0.45492217  0.92512122  0.24373191     0.02600
C1489       C  0.36122638  0.80036147  0.22577271     0.37300
C1490       C  0.54623628  0.96537024  0.24714829     0.37200
C1491       C  0.45848386  0.96988123  0.25065558     0.35700
C1492       C  0.44987230  0.79614072  0.22317992     0.35700
N1493       N  0.46226959  0.00557176  0.25649505    -0.39200
N1494       N  0.44775754  0.76157317  0.21701394    -0.39200
N1495       N  0.58384118  0.00046746  0.25038360    -0.38600
N1496       N  0.32446912  0.76614772  0.22136957    -0.38600
C1497       C  0.61232195  0.67775087  0.15425664    -0.05300
C1498       C  0.58062152  0.66453638  0.16786517    -0.02400
C1499       C  0.59441695  0.69627451  0.18143600     0.02600
C1500       C  0.64214402  0.73973192  0.18228925    -0.05300
C1501       C  0.67487258  0.75212859  0.16890086    -0.02400
C1502       C  0.65983821  0.72155309  0.15487487     0.02600
C1503       C  0.53408286  0.61719567  0.16821383     0.37300
C1504       C  0.72233363  0.79847782  0.16898696     0.37200
C1505       C  0.69234307  0.73670310  0.14081610     0.35700
C1506       C  0.55790673  0.68471331  0.19412675     0.35700
N1507       N  0.71842769  0.74921464  0.12963142    -0.39200
N1508       N  0.52736157  0.67557756  0.20373794    -0.39200
N1509       N  0.75995654  0.83570392  0.16900065    -0.38600
N1510       N  0.49725571  0.57929128  0.16880317    -0.38600
C1511       C  0.19642187  0.08728986  0.25080192    -0.05300
C1512       C  0.21843135  0.12091978  0.26391791    -0.02400
C1513       C  0.21596068  0.16540467  0.26451863     0.02600
C1514       C  0.19290876  0.17715611  0.25174759    -0.05300
C1515       C  0.16964342  0.14266786  0.23897458    -0.02400
C1516       C  0.17051074  0.09766263  0.23867632     0.02600
C1517       C  0.24525741  0.11080331  0.27645422     0.37300
C1518       C  0.14414961  0.15321333  0.22609546     0.37200
C1519       C  0.14251759  0.06082967  0.22624946     0.35700
C1520       C  0.23844764  0.19967044  0.27799069     0.35700
N1521       N  0.11956169  0.03116559  0.21650568    -0.39200
N1522       N  0.25619868  0.22677408  0.28881190    -0.39200
N1523       N  0.12423365  0.16174097  0.21571787    -0.38600
N1524       N  0.26687164  0.10294550  0.28644189    -0.38600
C1525       C  0.20873973  0.68825845  0.24110695    -0.05300
C1526       C  0.22201634  0.67001607  0.25487537    -0.02400
C1527       C  0.21513257  0.62140661  0.25489558     0.02600
C1528       C  0.19945363  0.59211503  0.24060559    -0.05300
C1529       C  0.19174605  0.61280202  0.22628117    -0.02400
C1530       C  0.19365161  0.65937066  0.22676807     0.02600
C1531       C  0.24589168  0.70227729  0.26872689     0.37300
C1532       C  0.18262029  0.58689945  0.21092939     0.37200
C1533       C  0.17757845  0.67619116  0.21273296     0.35700
C1534       C  0.22771646  0.60326440  0.26942004     0.35700
N1535       N  0.16407846  0.68927648  0.20162389    -0.39200
N1536       N  0.23872785  0.59004847  0.28107577    -0.39200
N1537       N  0.17689356  0.56749990  0.19848618    -0.38600
N1538       N  0.26610747  0.72765358  0.27973458    -0.38600
C1539       C  0.89865054  0.07769063  0.24999202    -0.05300
C1540       C  0.91276502  0.11030401  0.26343529    -0.02400
C1541       C  0.95758736  0.15710669  0.26302738     0.02600
C1542       C  0.98890623  0.17165146  0.24918603    -0.05300
C1543       C  0.97518739  0.13830437  0.23593255    -0.02400
C1544       C  0.93085442  0.09149640  0.23642628     0.02600
C1545       C  0.88013797  0.09648888  0.27743801     0.37300
C1546       C  0.00654574  0.15196121  0.22161712     0.37200
C1547       C  0.91939040  0.05672874  0.22310533     0.35700
C1548       C  0.96973250  0.19149920  0.27645632     0.35700
N1549       N  0.91081685  0.02911548  0.21250324    -0.39200
N1550       N  0.97908095  0.21900601  0.28714079    -0.39200
N1551       N  0.03075940  0.16265595  0.21001622    -0.38600
N1552       N  0.85385261  0.08502566  0.28855641    -0.38600
C1553       C  0.39477495  0.57601992  0.23799534    -0.05300
C1554       C  0.39866526  0.62183957  0.24244188    -0.02400
C1555       C  0.44590406  0.66489227  0.24431888     0.02600
C1556       C  0.48967247  0.66299332  0.24108189    -0.05300
C1557       C  0.48601337  0.61710590  0.23682559    -0.02400
C1558       C  0.43865378  0.57380924  0.23514655     0.02600
C1559       C  0.35402649  0.62447815  0.24558927     0.37300
C1560       C  0.53102335  0.61451401  0.23419239     0.37200
C1561       C  0.43501243  0.52724500  0.23010776     0.35700
C1562       C  0.44956643  0.71007206  0.25089360     0.35700
N1563       N  0.43225577  0.49026818  0.22594214    -0.39200
N1564       N  0.45227878  0.74565364  0.25644755    -0.39200
N1565       N  0.56705976  0.61265619  0.23214294    -0.38600
N1566       N  0.31856363  0.62701127  0.24796500    -0.38600
C1567       C  0.02683974  0.59993119  0.01969905    -0.05300
C1568       C  0.98596864  0.59156350  0.00987392    -0.02400
C1569       C  0.99226502  0.60085176  0.99303241     0.02600
C1570       C  0.03789647  0.61192141  0.98531645    -0.05300
C1571       C  0.07972156  0.62371178  0.99532314    -0.02400
C1572       C  0.07422965  0.61760973  0.01234615     0.02600
C1573       C  0.93675268  0.57262280  0.01693668     0.37300
C1574       C  0.12920828  0.64437521  0.98833806     0.37200
C1575       C  0.11729506  0.62696612  0.02209461     0.35700
C1576       C  0.95196343  0.60143228  0.98413102     0.35700
N1577       N  0.15188500  0.63456734  0.02973174    -0.39200
N1578       N  0.91985694  0.60310994  0.97744134    -0.39200
N1579       N  0.16903404  0.66147205  0.98301478    -0.38600
N1580       N  0.89708055  0.55648160  0.02230215    -0.38600
C1581       C  0.23963942  0.55994029  0.09588833    -0.05300
C1582       C  0.27161074  0.57974157  0.08232409    -0.02400
C1583       C  0.31929043  0.58439231  0.08255381     0.02600
C1584       C  0.33461307  0.56645605  0.09588873    -0.05300
C1585       C  0.30338599  0.54800546  0.10968201    -0.02400
C1586       C  0.25677516  0.54624896  0.10986084     0.02600
C1587       C  0.25629192  0.59640548  0.06806629     0.37300
C1588       C  0.31763356  0.52815674  0.12336040     0.37200
C1589       C  0.22617471  0.52932996  0.12434452     0.35700
C1590       C  0.35302582  0.60932558  0.06913627     0.35700
N1591       N  0.20245400  0.51670461  0.13606267    -0.39200
N1592       N  0.37887452  0.63002520  0.05828457    -0.39200
N1593       N  0.32818277  0.51167939  0.13429960    -0.38600
N1594       N  0.24530186  0.60971545  0.05643445    -0.38600
C1595       C  0.82133691  0.54589057  0.08558803    -0.05300
C1596       C  0.80736915  0.56482880  0.07213652    -0.02400
C1597       C  0.76005635  0.56164878  0.07175817     0.02600
C1598       C  0.72705717  0.54100231  0.08507214    -0.05300
C1599       C  0.74082223  0.52130663  0.09832210    -0.02400
C1600       C  0.78736070  0.52351008  0.09857279     0.02600
C1601       C  0.84265175  0.59027712  0.05911324     0.37300
C1602       C  0.70647283  0.49712391  0.11166036     0.37200
C1603       C  0.79918753  0.50084500  0.11208546     0.35700
C1604       C  0.74622047  0.58094369  0.05783387     0.35700
N1605       N  0.80790222  0.48240645  0.12289167    -0.39200
N1606       N  0.73567714  0.59616936  0.04655682    -0.39200
N1607       N  0.67989553  0.47761878  0.12246106    -0.38600
N1608       N  0.87078864  0.61111724  0.04876672    -0.38600
C1609       C  0.23777668  0.74511993  0.09857646    -0.05300
C1610       C  0.26813660  0.76029843  0.08454095    -0.02400
C1611       C  0.31393319  0.80562017  0.08438010     0.02600
C1612       C  0.32981752  0.83700522  0.09816068    -0.05300
C1613       C  0.30100938  0.82066047  0.11251751    -0.02400
C1614       C  0.25558923  0.77452759  0.11281380     0.02600
C1615       C  0.25299161  0.72873291  0.07023819     0.37300
C1616       C  0.31669477  0.85232955  0.12679231     0.37200
C1617       C  0.22680505  0.75848414  0.12769658     0.35700
C1618       C  0.34513262  0.81916088  0.07001512     0.35700
N1619       N  0.20468183  0.74622455  0.13974635    -0.39200
N1620       N  0.36938719  0.82904429  0.05844136    -0.39200
N1621       N  0.32896279  0.87744973  0.13820678    -0.38600
N1622       N  0.24128388  0.70398815  0.05874669    -0.38600
C1623       C  0.73490239  0.25443162  0.08231841    -0.05300
C1624       C  0.78085395  0.25499878  0.08237159    -0.02400
C1625       C  0.82635169  0.30068439  0.08299468     0.02600
C1626       C  0.82645413  0.34638739  0.08291945    -0.05300
C1627       C  0.78059089  0.34585562  0.08154972    -0.02400
C1628       C  0.73495986  0.30007162  0.08142444     0.02600
C1629       C  0.78147509  0.20859756  0.08104376     0.37300
C1630       C  0.78003045  0.39233950  0.08077745     0.37200
C1631       C  0.68807790  0.30012805  0.08091114     0.35700
C1632       C  0.87321314  0.30058021  0.08335096     0.35700
N1633       N  0.65083234  0.30043647  0.08042312    -0.39200
N1634       N  0.91052046  0.30036672  0.08359844    -0.39200
N1635       N  0.77917745  0.42920397  0.07994919    -0.38600
N1636       N  0.78253509  0.17194435  0.07966365    -0.38600
C1637       C  0.07639854  0.46379802  0.15393648    -0.05300
C1638       C  0.06813327  0.47723542  0.16949289    -0.02400
C1639       C  0.08298779  0.46147962  0.18350560     0.02600
C1640       C  0.10768739  0.43371992  0.18196466    -0.05300
C1641       C  0.11388185  0.41848711  0.16642682    -0.02400
C1642       C  0.09733565  0.43264742  0.15246788     0.02600
C1643       C  0.04332474  0.50629186  0.17103374     0.37300
C1644       C  0.13777347  0.38864022  0.16480625     0.37200
C1645       C  0.10230769  0.41565935  0.13654808     0.35700
C1646       C  0.07201655  0.47292057  0.19950740     0.35700
N1647       N  0.10618914  0.40220627  0.12382522    -0.39200
N1648       N  0.06311374  0.48190401  0.21227641    -0.39200
N1649       N  0.15687473  0.36484329  0.16352032    -0.38600
N1650       N  0.02323038  0.52920004  0.17219182    -0.38600
C1651       C  0.88897098  0.68543125  0.65296123    -0.05300
C1652       C  0.93217255  0.69279818  0.66130973    -0.02400
C1653       C  0.93951317  0.70732692  0.67781654     0.02600
C1654       C  0.90467723  0.71649596  0.68596058    -0.05300
C1655       C  0.86189062  0.70969249  0.67752242    -0.02400
C1656       C  0.85346005  0.69300219  0.66128863     0.02600
C1657       C  0.96850333  0.68424382  0.65300491     0.37300
C1658       C  0.82547574  0.71850077  0.68563684     0.37200
C1659       C  0.80801737  0.68394821  0.65318299     0.35700
C1660       C  0.98317287  0.71323500  0.68642355     0.35700
N1661       N  0.77113654  0.67613502  0.64703040    -0.39200
N1662       N  0.01786383  0.71783882  0.69334935    -0.39200
N1663       N  0.79636794  0.72584995  0.69190515    -0.38600
N1664       N  0.99745391  0.67729580  0.64641154    -0.38600
C1665       C  0.70683855  0.91929290  0.31833703    -0.05300
C1666       C  0.69093893  0.94862450  0.32679837    -0.02400
C1667       C  0.68048854  0.94102486  0.34358675     0.02600
C1668       C  0.68393030  0.90281287  0.35184154    -0.05300
C1669       C  0.70122037  0.87467735  0.34350576    -0.02400
C1670       C  0.71359558  0.88348985  0.32694843     0.02600
C1671       C  0.68672174  0.98758574  0.31836334     0.37300
C1672       C  0.70778906  0.83732619  0.35204923     0.37200
C1673       C  0.73245424  0.85467654  0.31883889     0.35700
C1674       C  0.66629751  0.97250541  0.35240970     0.35700
N1675       N  0.74802084  0.83182115  0.31262685    -0.39200
N1676       N  0.65535662  0.99774377  0.35955102    -0.39200
N1677       N  0.71312156  0.80722877  0.35860371    -0.38600
N1678       N  0.68345373  0.01882554  0.31170372    -0.38600
C1679       C  0.73441539  0.78016838  0.48964013    -0.05300
C1680       C  0.72967435  0.73225629  0.49014408    -0.02400
C1681       C  0.74321548  0.71549359  0.50427305     0.02600
C1682       C  0.76378713  0.74718274  0.51790833    -0.05300
C1683       C  0.76934271  0.79556933  0.51718965    -0.02400
C1684       C  0.75322419  0.81115568  0.50342994     0.02600
C1685       C  0.71420072  0.70120200  0.47572629     0.37300
C1686       C  0.79323739  0.83068809  0.53032757     0.37200
C1687       C  0.75506426  0.85895888  0.50369892     0.35700
C1688       C  0.73934859  0.66686869  0.50408924     0.35700
N1689       N  0.75625470  0.89690394  0.50417296    -0.39200
N1690       N  0.73597870  0.62797371  0.50341122    -0.39200
N1691       N  0.81359808  0.86006583  0.54036993    -0.38600
N1692       N  0.70256892  0.67621132  0.46428716    -0.38600
C1693       C  0.37159610  0.26104589  0.65163456    -0.05300
C1694       C  0.32647246  0.25151287  0.65950434    -0.02400
C1695       C  0.32239015  0.24822019  0.67662150     0.02600
C1696       C  0.36282348  0.25454676  0.68624026    -0.05300
C1697       C  0.40907004  0.26854197  0.67861818    -0.02400
C1698       C  0.41375019  0.27312950  0.66154308     0.02600
C1699       C  0.28328590  0.24479899  0.65041276     0.37300
C1700       C  0.45184727  0.27602348  0.68816410     0.37200
C1701       C  0.46283110  0.29200238  0.65440025     0.35700
C1702       C  0.27638335  0.23883979  0.68441800     0.35700
N1703       N  0.50247522  0.30777876  0.64904718    -0.39200
N1704       N  0.23984812  0.23139892  0.69069186    -0.39200
N1705       N  0.48639646  0.28208321  0.69551829    -0.38600
N1706       N  0.24812191  0.23975030  0.64368942    -0.38600
C1707       C  0.14826941  0.97592810  0.57313003    -0.05300
C1708       C  0.10562432  0.97766611  0.56757199    -0.02400
C1709       C  0.05860519  0.93362600  0.56651062     0.02600
C1710       C  0.05254009  0.88770483  0.57208906    -0.05300
C1711       C  0.09540598  0.88524140  0.57665653    -0.02400
C1712       C  0.14283629  0.92888878  0.57721276     0.02600
C1713       C  0.10877401  0.02497455  0.56375594     0.37300
C1714       C  0.09136241  0.83718331  0.57989652     0.37200
C1715       C  0.18586081  0.92437896  0.58166552     0.35700
C1716       C  0.01664816  0.93603612  0.55959326     0.35700
N1717       N  0.21928757  0.91929169  0.58520697    -0.39200
N1718       N  0.98362664  0.93813793  0.55377264    -0.39200
N1719       N  0.08881104  0.79909785  0.58226916    -0.38600
N1720       N  0.11049805  0.06233504  0.56072240    -0.38600
C1721       C  0.64867671  0.48313761  0.58576027    -0.05300
C1722       C  0.61603056  0.47032144  0.59921687    -0.02400
C1723       C  0.57046886  0.42424032  0.59949371     0.02600
C1724       C  0.55781778  0.39019772  0.58653115    -0.05300
C1725       C  0.59169086  0.40196956  0.57352819    -0.02400
C1726       C  0.63664935  0.44812918  0.57311955     0.02600
C1727       C  0.62839256  0.50507849  0.61255209     0.37300
C1728       C  0.58091519  0.36584712  0.56069548     0.37200
C1729       C  0.67118757  0.45898962  0.55979272     0.35700
C1730       C  0.53543479  0.41285909  0.61269826     0.35700
N1731       N  0.69856143  0.46752065  0.54912594    -0.39200
N1732       N  0.50710737  0.40352804  0.62313181    -0.39200
N1733       N  0.57245676  0.33692960  0.55052983    -0.38600
N1734       N  0.63822768  0.53258653  0.62326504    -0.38600
C1735       C  0.15821602  0.82680737  0.35138276    -0.05300
C1736       C  0.11256033  0.79901549  0.34285303    -0.02400
C1737       C  0.10960716  0.80735218  0.32608443     0.02600
C1738       C  0.15220610  0.84332826  0.31765530    -0.05300
C1739       C  0.19805583  0.87000510  0.32603107    -0.02400
C1740       C  0.20123744  0.86159638  0.34272538     0.02600
C1741       C  0.06908818  0.76020928  0.35116154     0.37300
C1742       C  0.24274635  0.90544706  0.31741224     0.37200
C1743       C  0.24918090  0.88938189  0.35085747     0.35700
C1744       C  0.06250060  0.77955135  0.31750985     0.35700
N1745       N  0.28792338  0.91145082  0.35702561    -0.39200
N1746       N  0.02498189  0.75766979  0.31060712    -0.39200
N1747       N  0.27891290  0.93395073  0.31083331    -0.38600
N1748       N  0.03457949  0.72894897  0.35777953    -0.38600
C1749       C  0.89263305  0.85116326  0.43401825    -0.05300
C1750       C  0.89774485  0.81080853  0.42826173    -0.02400
C1751       C  0.94486213  0.81386238  0.42816619     0.02600
C1752       C  0.98767178  0.85632194  0.43450105    -0.05300
C1753       C  0.98098508  0.89307034  0.44250705    -0.02400
C1754       C  0.93467668  0.89193113  0.44152358     0.02600
C1755       C  0.85440005  0.76497033  0.42277851     0.37300
C1756       C  0.02119927  0.93214713  0.45193893     0.37200
C1757       C  0.93173331  0.93435357  0.44762891     0.35700
C1758       C  0.94826867  0.77158972  0.42217667     0.35700
N1759       N  0.92980393  0.96844168  0.45244717    -0.39200
N1760       N  0.95015458  0.73743685  0.41742334    -0.39200
N1761       N  0.05271184  0.96311858  0.45968709    -0.38600
N1762       N  0.82029654  0.72807591  0.41842787    -0.38600
C1763       C  0.39977468  0.87201757  0.41557963    -0.05300
C1764       C  0.40025318  0.82709278  0.41296350    -0.02400
C1765       C  0.44597927  0.82721567  0.41215563     0.02600
C1766       C  0.49191969  0.87235238  0.41379192    -0.05300
C1767       C  0.49146936  0.91764068  0.41541855    -0.02400
C1768       C  0.44571888  0.91741089  0.41660811     0.02600
C1769       C  0.35356391  0.77995772  0.41236040     0.37300
C1770       C  0.53818364  0.96476713  0.41557382     0.37200
C1771       C  0.44617123  0.96404126  0.41904729     0.35700
C1772       C  0.44538199  0.78022542  0.41068760     0.35700
N1773       N  0.44699633  0.00141967  0.42111283    -0.39200
N1774       N  0.44474257  0.74266938  0.40952310    -0.39200
N1775       N  0.57526445  0.00252146  0.41552401    -0.38600
N1776       N  0.31639614  0.74231576  0.41198565    -0.38600
C1777       C  0.30452368  0.05499114  0.51659824    -0.05300
C1778       C  0.26453908  0.00523833  0.51709307    -0.02400
C1779       C  0.24963671  0.97570864  0.50291683     0.02600
C1780       C  0.27515578  0.99524948  0.48814045    -0.05300
C1781       C  0.31630986  0.04447341  0.48774763    -0.02400
C1782       C  0.33068427  0.07435977  0.50190490     0.02600
C1783       C  0.23957024  0.98377817  0.53233205     0.37300
C1784       C  0.34301181  0.06497857  0.47268848     0.37200
C1785       C  0.37122720  0.12567489  0.50123307     0.35700
C1786       C  0.20854420  0.92463395  0.50360282     0.35700
N1787       N  0.40344053  0.16668713  0.50075611    -0.39200
N1788       N  0.17588271  0.88384993  0.50410251    -0.39200
N1789       N  0.36472589  0.08154124  0.46074139    -0.38600
N1790       N  0.21977539  0.96618607  0.54446786    -0.38600
C1791       C  0.24060948  0.36228229  0.31722796    -0.05300
C1792       C  0.21502327  0.31861551  0.32690923    -0.02400
C1793       C  0.21483014  0.32193520  0.34406146     0.02600
C1794       C  0.24294172  0.36852087  0.35199667    -0.05300
C1795       C  0.27223579  0.41136309  0.34253241    -0.02400
C1796       C  0.27180681  0.40838694  0.32540368     0.02600
C1797       C  0.19137779  0.26950770  0.31953194     0.37300
C1798       C  0.30349755  0.45914666  0.35040537     0.37200
C1799       C  0.30550932  0.45358471  0.31666401     0.35700
C1800       C  0.18294083  0.27727801  0.35338851     0.35700
N1801       N  0.33418323  0.49047970  0.31045420    -0.39200
N1802       N  0.15695644  0.24144596  0.36063668    -0.39200
N1803       N  0.32828877  0.49751118  0.35648955    -0.38600
N1804       N  0.17316522  0.22966200  0.31417233    -0.38600
C1805       C  0.20134435  0.07542886  0.43209597    -0.05300
C1806       C  0.24550726  0.12233905  0.43338519    -0.02400
C1807       C  0.24265285  0.16648811  0.43415092     0.02600
C1808       C  0.19565624  0.16386582  0.43441400    -0.05300
C1809       C  0.15188823  0.11658898  0.43495001    -0.02400
C1810       C  0.15466223  0.07318964  0.43227014     0.02600
C1811       C  0.29391206  0.12555832  0.43361733     0.37300
C1812       C  0.10415494  0.11195471  0.43888997     0.37200
C1813       C  0.11012849  0.02776226  0.42731920     0.35700
C1814       C  0.28804089  0.21453639  0.43550994     0.35700
N1815       N  0.07539043  0.99215408  0.42254194    -0.39200
N1816       N  0.32422026  0.25282118  0.43675682    -0.39200
N1817       N  0.06637756  0.10777375  0.44283599    -0.38600
N1818       N  0.33288731  0.12889827  0.43372509    -0.38600
C1819       C  0.18716848  0.56446324  0.41712989    -0.05300
C1820       C  0.17062855  0.58025217  0.40348096    -0.02400
C1821       C  0.17062600  0.62618819  0.40385076     0.02600
C1822       C  0.18760470  0.65697098  0.41780694    -0.05300
C1823       C  0.20580621  0.64183115  0.43116258    -0.02400
C1824       C  0.20578323  0.59624486  0.43078512     0.02600
C1825       C  0.15183193  0.54847620  0.38929391     0.37300
C1826       C  0.22565597  0.67357989  0.44535965     0.37200
C1827       C  0.22619360  0.58268828  0.44448908     0.35700
C1828       C  0.15075628  0.64052811  0.39020209     0.35700
N1829       N  0.24252711  0.57236995  0.45551322    -0.39200
N1830       N  0.13470803  0.65203208  0.37937379    -0.39200
N1831       N  0.24156066  0.69840110  0.45677358    -0.38600
N1832       N  0.13680217  0.52325072  0.37793236    -0.38600
C1833       C  0.38998660  0.56780128  0.41935415    -0.05300
C1834       C  0.40197030  0.60234872  0.43219650    -0.02400
C1835       C  0.44664326  0.64870437  0.43188957     0.02600
C1836       C  0.48121940  0.66043122  0.41914834    -0.05300
C1837       C  0.46871341  0.62696282  0.40599704    -0.02400
C1838       C  0.42343373  0.58072150  0.40614014     0.02600
C1839       C  0.36866781  0.59060312  0.44593144     0.37300
C1840       C  0.50290564  0.63939666  0.39247235     0.37200
C1841       C  0.41320636  0.54524674  0.39318594     0.35700
C1842       C  0.45582767  0.68546889  0.44436298     0.35700
N1843       N  0.40591010  0.51714838  0.38285146    -0.39200
N1844       N  0.46266523  0.71489916  0.45418534    -0.39200
N1845       N  0.52993529  0.64937113  0.38161039    -0.38600
N1846       N  0.34322200  0.58191907  0.45715444    -0.38600
C1847       C  0.89268697  0.05773233  0.42907780    -0.05300
C1848       C  0.89357225  0.10072418  0.43522216    -0.02400
C1849       C  0.93757377  0.14771178  0.43411809     0.02600
C1850       C  0.98073867  0.15187182  0.42683396    -0.05300
C1851       C  0.97905794  0.10927088  0.42000726    -0.02400
C1852       C  0.93528421  0.06223891  0.42125833     0.02600
C1853       C  0.84862001  0.09696538  0.44203624     0.37300
C1854       C  0.02151508  0.11427881  0.41096920     0.37200
C1855       C  0.93309645  0.01874694  0.41379597     0.35700
C1856       C  0.93815195  0.19211560  0.44002544     0.35700
N1857       N  0.93091732  0.98395973  0.40778317    -0.39200
N1858       N  0.93893129  0.22773431  0.44468975    -0.39200
N1859       N  0.05533297  0.11817972  0.40374834    -0.38600
N1860       N  0.81274588  0.09427001  0.44734561    -0.38600
C1861       C  0.83266474  0.16071332  0.68654417    -0.05300
C1862       C  0.79129757  0.12178129  0.67846274    -0.02400
C1863       C  0.78582127  0.12443854  0.66152031     0.02600
C1864       C  0.82128464  0.16656549  0.65266976    -0.05300
C1865       C  0.86322424  0.20483119  0.66077442    -0.02400
C1866       C  0.86878420  0.20192722  0.67762276     0.02600
C1867       C  0.75519728  0.07850413  0.68756153     0.37300
C1868       C  0.90206267  0.24645098  0.65175469     0.37200
C1869       C  0.91135491  0.24228923  0.68579191     0.35700
C1870       C  0.74372040  0.08382810  0.65322765     0.35700
N1871       N  0.94567017  0.27479482  0.69205701    -0.39200
N1872       N  0.71017592  0.05118085  0.64666953    -0.39200
N1873       N  0.93359030  0.27989120  0.64482500    -0.38600
N1874       N  0.72670439  0.04393397  0.69487068    -0.38600
C1875       C  0.85588388  0.49124162  0.58404541    -0.05300
C1876       C  0.87370842  0.47579353  0.59740314    -0.02400
C1877       C  0.87474582  0.43051284  0.59670258     0.02600
C1878       C  0.85586664  0.39906119  0.58290937    -0.05300
C1879       C  0.83619462  0.41371276  0.56987364    -0.02400
C1880       C  0.83750927  0.45992204  0.57022644     0.02600
C1881       C  0.89279518  0.50741260  0.61163281     0.37300
C1882       C  0.81227191  0.38021856  0.55628015     0.37200
C1883       C  0.81885378  0.47436878  0.55626441     0.35700
C1884       C  0.89754373  0.41769590  0.60987471     0.35700
N1885       N  0.80409558  0.48483909  0.54486178    -0.39200
N1886       N  0.91618462  0.40788208  0.62035644    -0.39200
N1887       N  0.79265592  0.35363894  0.54546944    -0.38600
N1888       N  0.90783122  0.53264067  0.62299444    -0.38600
C1889       C  0.85379773  0.99297188  0.57429513    -0.05300
C1890       C  0.89615916  0.98822764  0.57719058    -0.02400
C1891       C  0.89063482  0.94081491  0.57985070     0.02600
C1892       C  0.84379135  0.89745983  0.57757910    -0.05300
C1893       C  0.80151241  0.90197204  0.57392617    -0.02400
C1894       C  0.80641171  0.94972428  0.57258485     0.02600
C1895       C  0.94557585  0.03198409  0.57736515     0.37300
C1896       C  0.75326158  0.85775863  0.57122296     0.37200
C1897       C  0.76306953  0.95451517  0.56889207     0.35700
C1898       C  0.93208045  0.93686653  0.58644659     0.35700
N1899       N  0.72860923  0.95843008  0.56586013    -0.39200
N1900       N  0.96478447  0.93399060  0.59217016    -0.39200
N1901       N  0.71468823  0.82279021  0.56886901    -0.38600
N1902       N  0.98534365  0.06641252  0.57707097    -0.38600
C1903       C  0.55855457  0.18733763  0.58778930    -0.05300
C1904       C  0.60437340  0.23221090  0.58999178    -0.02400
C1905       C  0.64984682  0.23171630  0.59041923     0.02600
C1906       C  0.64983678  0.18607707  0.58924756    -0.05300
C1907       C  0.60360840  0.14091429  0.58836658    -0.02400
C1908       C  0.55833122  0.14159673  0.58745157     0.02600
C1909       C  0.60508074  0.27922386  0.59151034     0.37300
C1910       C  0.60223999  0.09340713  0.58895855     0.37200
C1911       C  0.51121365  0.09491270  0.58674716     0.35700
C1912       C  0.69668332  0.27862223  0.59129844     0.35700
N1913       N  0.47364919  0.05767157  0.58628574    -0.39200
N1914       N  0.73381907  0.31622775  0.59199799    -0.39200
N1915       N  0.60031314  0.05513104  0.58962971    -0.38600
N1916       N  0.60603126  0.31684418  0.59298851    -0.38600
C1917       C  0.06373144  0.19206689  0.57345825    -0.05300
C1918       C  0.09398546  0.20392820  0.55948232    -0.02400
C1919       C  0.13714598  0.19900652  0.55966459     0.02600
C1920       C  0.14971167  0.18121221  0.57375178    -0.05300
C1921       C  0.11741790  0.16641070  0.58730862    -0.02400
C1922       C  0.07568306  0.17322973  0.58735761     0.02600
C1923       C  0.08181647  0.22319258  0.54515537     0.37300
C1924       C  0.12527479  0.14150145  0.60100174     0.37200
C1925       C  0.04416763  0.15931796  0.60168048     0.35700
C1926       C  0.16912699  0.21365790  0.54549886     0.35700
N1927       N  0.01937158  0.14809938  0.61316236    -0.39200
N1928       N  0.19424431  0.22542094  0.53408578    -0.39200
N1929       N  0.12988934  0.12069728  0.61197002    -0.38600
N1930       N  0.07195555  0.23856486  0.53376163    -0.38600
C1931       C  0.04455249  0.30123557  0.48518002    -0.05300
C1932       C  0.04783245  0.33587440  0.49705268    -0.02400
C1933       C  0.01906519  0.31920182  0.51146511     0.02600
C1934       C  0.98213266  0.26835944  0.51349491    -0.05300
C1935       C  0.97619738  0.23438557  0.50105545    -0.02400
C1936       C  0.00893912  0.24996732  0.48761258     0.02600
C1937       C  0.08132481  0.38895133  0.49488722     0.37300
C1938       C  0.93459366  0.18359271  0.50137732     0.37200
C1939       C  0.00530896  0.21221993  0.47639053     0.35700
C1940       C  0.02996937  0.35453373  0.52454044     0.35700
N1941       N  0.00270502  0.18137698  0.46785977    -0.39200
N1942       N  0.03991750  0.38326142  0.53487278    -0.39200
N1943       N  0.90129496  0.14316452  0.50091220    -0.38600
N1944       N  0.10676626  0.43168344  0.49357629    -0.38600
loop_ 
_geom_bond_atom_site_label_1 
_geom_bond_atom_site_label_2 
_geom_bond_distance 
_geom_bond_site_symmetry_2 
_ccdc_geom_bond_type 
Zr1           O2   2.430       .  S
Zr1           O3   2.440       .  S
Zr1           O4   2.442       .  S
Zr1           O7   2.434       .  S
Zr1           O9   2.378       .  S
Zr1          O10   2.378       .  S
Zr1          O11   2.408       .  S
Zr1          O12   2.399       .  S
O2           H58   0.989       .  S
O2           H66   0.989       .  S
O3           C23   1.286   1_655  A
O4           C25   1.288       .  A
O5          Zr15   2.423       .  S
O5           C24   1.282       .  A
O6          Zr14   2.449       .  S
O6           C25   1.289       .  A
O7           C24   1.285       .  A
O8          Zr16   2.429   1_455  S
O8           C23   1.284       .  A
O9          Zr14   2.389       .  S
O9          Zr16   2.366       .  S
O10         Zr15   2.383       .  S
O10         Zr16   2.380       .  S
O10          H45   0.965       .  S
O11         Zr14   2.399       .  S
O11         Zr31   2.406       .  S
O11          H48   0.966       .  S
O12         Zr15   2.380       .  S
O12         Zr31   2.392       .  S
Zr13         O38   2.441       .  S
Zr13         O32   2.450       .  S
Zr13         O40   2.467       .  S
Zr13         O28   2.443       .  S
Zr13         O19   2.396       .  S
Zr13         O20   2.413       .  S
Zr13         O21   2.386       .  S
Zr13         O22   2.387       .  S
Zr14         O33   2.436       .  S
Zr14         O26   2.431       .  S
Zr14         O27   2.441       .  S
Zr14         O20   2.397       .  S
Zr14         O21   2.396       .  S
Zr15         O17   2.435       .  S
Zr15         O39   2.442       .  S
Zr15         O41   2.395       .  S
Zr15         O19   2.398       .  S
Zr15         O22   2.397       .  S
Zr16         O42   2.433       .  S
Zr16         O43   2.437       .  S
Zr16         O18   2.440   1_655  S
Zr16         O19   2.393       .  S
Zr16         O20   2.400       .  S
O17          H54   0.990       .  S
O18          H49   0.990       .  S
O18          H63   0.990       .  S
O20          H46   0.965       .  S
O21         Zr31   2.376       .  S
O22         Zr31   2.388       .  S
O22          H47   0.965       .  S
C23        C1917   1.487       .  S
C24        C1889   1.478   1_545  S
C25        C1934   1.505       .  S
O26          H62   0.990       .  S
O27          C29   1.287       .  A
O28          C29   1.285       .  A
C29        C1878   1.498       .  S
O30         Zr31   2.436       .  S
O30          H59   0.990       .  S
Zr31         O34   2.435       .  S
Zr31         O35   2.439       .  S
Zr31         O36   2.422       .  S
O32          C37   1.286       .  A
O33          H50   0.990       .  S
O33          H65   0.989       .  S
O34          H51   0.990       .  S
O35          H55   0.990       .  S
O35          H64   0.989       .  S
O36          C37   1.281       .  A
C37        C1906   1.493       .  S
O38          H57   0.990       .  S
O38          H61   0.990       .  S
O39          H53   0.990       .  S
O39          H60   0.990       .  S
O40          C44   1.290       .  A
O41          C44   1.277       .  A
O42          H52   0.990       .  S
O43          H56   0.990       .  S
C44        C1864   1.479       .  S
Zr67         O68   2.438       .  S
Zr67         O69   2.438       .  S
Zr67         O70   2.433       .  S
Zr67         O73   2.422       .  S
Zr67         O75   2.378       .  S
Zr67         O76   2.383       .  S
Zr67         O77   2.402       .  S
Zr67         O78   2.406       .  S
O68         H124   0.990       .  S
O68         H132   0.990       .  S
O69          C89   1.284       .  A
O70          C91   1.284       .  A
O71         Zr81   2.443       .  S
O71          C90   1.285       .  A
O72         Zr80   2.457       .  S
O72          C91   1.289       .  A
O73          C90   1.282       .  A
O74         Zr82   2.426       .  S
O74          C89   1.281       .  A
O75         Zr80   2.392       .  S
O75         Zr82   2.369       .  S
O76         Zr81   2.397       .  S
O76         Zr82   2.390       .  S
O76         H111   0.966       .  S
O77         Zr80   2.396       .  S
O77         Zr97   2.402       .  S
O77         H114   0.966       .  S
O78         Zr81   2.383       .  S
O78         Zr97   2.400       .  S
Zr79        O104   2.440       .  S
Zr79         O98   2.450       .  S
Zr79        O106   2.460       .  S
Zr79         O94   2.461       .  S
Zr79         O85   2.392       .  S
Zr79         O86   2.418       .  S
Zr79         O87   2.380       .  S
Zr79         O88   2.396       .  S
Zr80         O99   2.431       .  S
Zr80         O92   2.436       .  S
Zr80         O93   2.434       .  S
Zr80         O86   2.405       .  S
Zr80         O87   2.394       .  S
Zr81         O83   2.437       .  S
Zr81        O105   2.439       .  S
Zr81        O107   2.434       .  S
Zr81         O85   2.388       .  S
Zr81         O88   2.397       .  S
Zr82        O108   2.438       .  S
Zr82        O109   2.435       .  S
Zr82         O84   2.436       .  S
Zr82         O85   2.377       .  S
Zr82         O86   2.409       .  S
O83         H120   0.990       .  S
O84         H115   0.990   1_455  S
O84         H129   0.990       .  S
O86         H112   0.966       .  S
O87         Zr97   2.371       .  S
O88         Zr97   2.391       .  S
O88         H113   0.966       .  S
C89        C1850   1.481   1_455  S
C90        C1808   1.490       .  S
C91        C1931   1.510       .  S
O92         H128   0.990       .  S
O93          C95   1.285       .  A
O94          C95   1.287       .  A
C95        C1819   1.499       .  S
O96         Zr97   2.436       .  S
O96         H125   0.990       .  S
Zr97        O100   2.434       .  S
Zr97        O101   2.439       .  S
Zr97        O102   2.422       .  S
O98         C103   1.286       .  A
O99         H116   0.990       .  S
O99         H131   0.989       .  S
O100        H117   0.990       .  S
O101        H121   0.991       .  S
O101        H130   0.990       .  S
O102        C103   1.282       .  A
C103       C1833   1.493       .  S
O104        H123   0.990       .  S
O104        H127   0.990       .  S
O105        H119   0.990       .  S
O105        H126   0.990       .  S
O106        C110   1.291       .  A
O107        C110   1.285       .  A
O108        H118   0.990       .  S
O109        H122   0.990       .  S
C110       C1794   1.497       .  S
Zr133       O134   2.439       .  S
Zr133       O135   2.433       .  S
Zr133       O136   2.432       .  S
Zr133       O139   2.435       .  S
Zr133       O141   2.381       .  S
Zr133       O142   2.384       .  S
Zr133       O143   2.409       .  S
Zr133       O144   2.401       .  S
O134        H190   0.990       .  S
O134        H198   0.989       .  S
O135        C155   1.285   1_565  A
O136        C157   1.284       .  A
O137       Zr147   2.441       .  S
O137        C156   1.286       .  A
O138       Zr146   2.445       .  S
O138        C157   1.285       .  A
O139        C156   1.284       .  A
O140       Zr148   2.425   1_545  S
O140        C155   1.281       .  A
O141       Zr146   2.391       .  S
O141       Zr148   2.366       .  S
O142       Zr147   2.395       .  S
O142       Zr148   2.384       .  S
O142        H177   0.966       .  S
O143       Zr146   2.402       .  S
O143       Zr163   2.409       .  S
O143        H180   0.966       .  S
O144       Zr147   2.387       .  S
O144       Zr163   2.395       .  S
Zr145       O170   2.442       .  S
Zr145       O164   2.460       .  S
Zr145       O172   2.457       .  S
Zr145       O160   2.448       .  S
Zr145       O151   2.395       .  S
Zr145       O152   2.425       .  S
Zr145       O153   2.385       .  S
Zr145       O154   2.392       .  S
Zr146       O165   2.437       .  S
Zr146       O158   2.434       .  S
Zr146       O159   2.439       .  S
Zr146       O152   2.405       .  S
Zr146       O153   2.398       .  S
Zr147       O149   2.434       .  S
Zr147       O171   2.441       .  S
Zr147       O173   2.428       .  S
Zr147       O151   2.385       .  S
Zr147       O154   2.403       .  S
Zr148       O174   2.435       .  S
Zr148       O175   2.434       .  S
Zr148       O150   2.437   1_565  S
Zr148       O151   2.382       .  S
Zr148       O152   2.405       .  S
O149        H186   0.990       .  S
O150        H181   0.990       .  S
O150        H195   0.990       .  S
O152        H178   0.966       .  S
O153       Zr163   2.382       .  S
O154       Zr163   2.392       .  S
O154        H179   0.966       .  S
C155       C1805   1.486       .  S
C156       C1752   1.506   1_455  S
C157       C1780   1.489       .  S
O158        H194   0.991       .  S
O159        C161   1.284       .  A
O160        C161   1.285       .  A
C161       C1763   1.494       .  S
O162       Zr163   2.440       .  S
O162        H191   0.990       .  S
Zr163       O166   2.435       .  S
Zr163       O167   2.441       .  S
Zr163       O168   2.423       .  S
O164        C169   1.287       .  A
O165        H182   0.990       .  S
O165        H197   0.990       .  S
O166        H183   0.989       .  S
O167        H187   0.990       .  S
O167        H196   0.990       .  S
O168        C169   1.282       .  A
C169       C1822   1.499       .  S
O170        H189   0.990       .  S
O170        H193   0.990       .  S
O171        H185   0.990       .  S
O171        H192   0.990       .  S
O172        C176   1.289       .  A
O173        C176   1.284       .  A
O174        H184   0.990       .  S
O175        H188   0.990       .  S
C176       C1735   1.494       .  S
Zr199       O200   2.435       .  S
Zr199       O201   2.433       .  S
Zr199       O202   2.434       .  S
Zr199       O205   2.448       .  S
Zr199       O207   2.380       .  S
Zr199       O208   2.371       .  S
Zr199       O209   2.406       .  S
Zr199       O210   2.400       .  S
O200        H256   0.990       .  S
O200        H264   0.990       .  S
O201        C221   1.285       .  A
O202        C223   1.285       .  A
O203       Zr213   2.427       .  S
O203        C222   1.285       .  A
O204       Zr212   2.445       .  S
O204        C223   1.287       .  A
O205        C222   1.288       .  A
O206       Zr214   2.437       .  S
O206        C221   1.285       .  A
O207       Zr212   2.390       .  S
O207       Zr214   2.371       .  S
O208       Zr213   2.382       .  S
O208       Zr214   2.373       .  S
O208        H243   0.965       .  S
O209       Zr212   2.394       .  S
O209       Zr229   2.400       .  S
O209        H246   0.966       .  S
O210       Zr213   2.385       .  S
O210       Zr229   2.390       .  S
Zr211       O236   2.440       .  S
Zr211       O230   2.452       .  S
Zr211       O238   2.470       .  S
Zr211       O226   2.436       .  S
Zr211       O217   2.396       .  S
Zr211       O218   2.413       .  S
Zr211       O219   2.384       .  S
Zr211       O220   2.381       .  S
Zr212       O231   2.436       .  S
Zr212       O224   2.434       .  S
Zr212       O225   2.440       .  S
Zr212       O218   2.399       .  S
Zr212       O219   2.388       .  S
Zr213       O215   2.435       .  S
Zr213       O237   2.436       .  S
Zr213       O239   2.414       .  S
Zr213       O217   2.390       .  S
Zr213       O220   2.392       .  S
Zr214       O240   2.435       .  S
Zr214       O241   2.436       .  S
Zr214       O216   2.434       .  S
Zr214       O217   2.396       .  S
Zr214       O218   2.398       .  S
O215        H252   0.990       .  S
O216        H247   0.990   1_545  S
O216        H261   0.990       .  S
O218        H244   0.966       .  S
O219       Zr229   2.374       .  S
O220       Zr229   2.383       .  S
O220        H245   0.964       .  S
C221       C1707   1.501   1_545  S
C222       C1920   1.492       .  S
C223       C1777   1.488       .  S
O224        H260   0.990       .  S
O225        C227   1.287       .  A
O226        C227   1.285       .  A
C227       C1903   1.491       .  S
O228       Zr229   2.438       .  S
O228        H257   0.990       .  S
Zr229       O232   2.436       .  S
Zr229       O233   2.440       .  S
Zr229       O234   2.417       .  S
O230        C235   1.288       .  A
O231        H248   0.990       .  S
O231        H263   0.990       .  S
O232        H249   0.990       .  S
O233        H253   0.990       .  S
O233        H262   0.990       .  S
O234        C235   1.281       .  A
C235       C1724   1.489       .  S
O236        H255   0.989       .  S
O236        H259   0.990       .  S
O237        H251   0.987       .  S
O237        H258   0.990       .  S
O238        C242   1.292       .  A
O239        C242   1.279       .  A
O240        H250   0.990       .  S
O241        H254   0.990       .  S
C242       C1693   1.513       .  S
Zr265       O266   2.433       .  S
Zr265       O267   2.431       .  S
Zr265       O268   2.444       .  S
Zr265       O271   2.448       .  S
Zr265       O273   2.377       .  S
Zr265       O274   2.378       .  S
Zr265       O275   2.409       .  S
Zr265       O276   2.399       .  S
O266        H322   0.990       .  S
O266        H330   0.990       .  S
O267        C287   1.284       .  A
O268        C289   1.288       .  A
O269       Zr279   2.409   1_545  S
O269        C288   1.279       .  A
O270       Zr278   2.439       .  S
O270        C289   1.286       .  A
O271        C288   1.288   1_565  A
O272       Zr280   2.437       .  S
O272        C287   1.285       .  A
O273       Zr278   2.386       .  S
O273       Zr280   2.362       .  S
O274       Zr279   2.387       .  S
O274       Zr280   2.376       .  S
O274        H309   0.967       .  S
O275       Zr278   2.399       .  S
O275       Zr295   2.402       .  S
O275        H312   0.966       .  S
O276       Zr279   2.384       .  S
O276       Zr295   2.393       .  S
Zr277       O302   2.442       .  S
Zr277       O296   2.453       .  S
Zr277       O304   2.457       .  S
Zr277       O292   2.441       .  S
Zr277       O283   2.396       .  S
Zr277       O284   2.420       .  S
Zr277       O285   2.382       .  S
Zr277       O286   2.382       .  S
Zr278       O297   2.436       .  S
Zr278       O290   2.436       .  S
Zr278       O291   2.424       .  S
Zr278       O284   2.407       .  S
Zr278       O285   2.391       .  S
Zr279       O281   2.434   1_565  S
Zr279       O303   2.439       .  S
Zr279       O305   2.400       .  S
Zr279       O283   2.393       .  S
Zr279       O286   2.390       .  S
Zr280       O306   2.434       .  S
Zr280       O307   2.436       .  S
Zr280       O282   2.440       .  S
Zr280       O283   2.398       .  S
Zr280       O284   2.407       .  S
O281        H318   0.990       .  S
O282        H313   0.990       .  S
O282        H327   0.990       .  S
O284        H310   0.965       .  S
O285       Zr295   2.371       .  S
O286       Zr295   2.388       .  S
O286        H311   0.966       .  S
C287       C1749   1.507       .  S
C288       C1847   1.478       .  S
C289       C1679   1.496       .  S
O290        H326   0.990       .  S
O291        C293   1.284       .  A
O292        C293   1.284       .  A
C293       C1836   1.488       .  S
O294       Zr295   2.438       .  S
O294        H323   0.990       .  S
Zr295       O298   2.439       .  S
Zr295       O299   2.435       .  S
Zr295       O300   2.420       .  S
O296        C301   1.287       .  A
O297        H314   0.990       .  S
O297        H329   0.990       .  S
O298        H315   0.990       .  S
O299        H319   0.990       .  S
O299        H328   0.989       .  S
O300        C301   1.281       .  A
C301       C1766   1.495       .  S
O302        H321   0.990       .  S
O302        H325   0.990       .  S
O303        H317   0.990       .  S
O303        H324   0.990       .  S
O304        C308   1.289       .  A
O305        C308   1.277       .  A
O306        H316   0.989       .  S
O307        H320   0.990       .  S
C308       C1668   1.478       .  S
Zr331       O332   2.440       .  S
Zr331       O333   2.433       .  S
Zr331       O334   2.436       .  S
Zr331       O337   2.442       .  S
Zr331       O339   2.375       .  S
Zr331       O340   2.380       .  S
Zr331       O341   2.409       .  S
Zr331       O342   2.398       .  S
O332        H388   0.991       .  S
O332        H396   0.990       .  S
O333        C353   1.284       .  A
O334        C355   1.285       .  A
O335       Zr345   2.423       .  S
O335        C354   1.283   1_655  A
O336       Zr344   2.458       .  S
O336        C355   1.290       .  A
O337        C354   1.286   1_655  A
O338       Zr346   2.428       .  S
O338        C353   1.281       .  A
O339       Zr344   2.386       .  S
O339       Zr346   2.363       .  S
O340       Zr345   2.390       .  S
O340       Zr346   2.386       .  S
O340        H375   0.966       .  S
O341       Zr344   2.404       .  S
O341       Zr361   2.405       .  S
O341        H378   0.966       .  S
O342       Zr345   2.387       .  S
O342       Zr361   2.392       .  S
Zr343       O368   2.442       .  S
Zr343       O362   2.465       .  S
Zr343       O370   2.480       .  S
Zr343       O358   2.439       .  S
Zr343       O349   2.392       .  S
Zr343       O350   2.421       .  S
Zr343       O351   2.385       .  S
Zr343       O352   2.385       .  S
Zr344       O363   2.432       .  S
Zr344       O356   2.434       .  S
Zr344       O357   2.442       .  S
Zr344       O350   2.399       .  S
Zr344       O351   2.392       .  S
Zr345       O347   2.433       .  S
Zr345       O369   2.441       .  S
Zr345       O371   2.399       .  S
Zr345       O349   2.395       .  S
Zr345       O352   2.398       .  S
Zr346       O372   2.435       .  S
Zr346       O373   2.436       .  S
Zr346       O348   2.441       .  S
Zr346       O349   2.393       .  S
Zr346       O350   2.404       .  S
O347        H384   0.990   1_655  S
O348        H379   0.990       .  S
O348        H393   0.990       .  S
O350        H376   0.965       .  S
O351       Zr361   2.373       .  S
O352       Zr361   2.394       .  S
O352        H377   0.965       .  S
C353       C1892   1.480       .  S
C354       C1710   1.495       .  S
C355       C1682   1.504       .  S
O356        H392   0.990       .  S
O357        C359   1.287       .  A
O358        C359   1.285       .  A
C359       C1721   1.493       .  S
O360       Zr361   2.439       .  S
O360        H389   0.991       .  S
Zr361       O364   2.433       .  S
Zr361       O365   2.440       .  S
Zr361       O366   2.411       .  S
O362        C367   1.289       .  A
O363        H380   0.990       .  S
O363        H395   0.988       .  S
O364        H381   0.988       .  S
O365        H385   0.990       .  S
O365        H394   0.990       .  S
O366        C367   1.280       .  A
C367       C1875   1.496       .  S
O368        H387   0.990       .  S
O368        H391   0.991       .  S
O369        H383   0.990       .  S
O369        H390   0.990       .  S
O370        C374   1.292       .  A
O371        C374   1.277       .  A
O372        H382   0.990       .  S
O373        H386   0.990       .  S
C374       C1651   1.487       .  S
Zr397       O398   2.437       .  S
Zr397       O399   2.432       .  S
Zr397       O400   2.437       .  S
Zr397       O403   2.428       .  S
Zr397       O405   2.383       .  S
Zr397       O406   2.388       .  S
Zr397       O407   2.407       .  S
Zr397       O408   2.411       .  S
O398        H454   0.990       .  S
O398        H462   0.990       .  S
O399        C419   1.284       .  A
O400        C421   1.285       .  A
O401       Zr411   2.446       .  S
O401        C420   1.287       .  A
O402       Zr410   2.429   1_455  S
O402        C421   1.283       .  A
O403        C420   1.283       .  A
O404       Zr412   2.432       .  S
O404        C419   1.285       .  A
O405       Zr410   2.390   1_455  S
O405       Zr412   2.368       .  S
O406       Zr411   2.392       .  S
O406       Zr412   2.383       .  S
O406        H441   0.966       .  S
O407       Zr410   2.393   1_455  S
O407       Zr427   2.399   1_455  S
O407        H444   0.966       .  S
O408       Zr411   2.377       .  S
O408       Zr427   2.401   1_455  S
Zr409       O434   2.442       .  S
Zr409       O428   2.443       .  S
Zr409       O436   2.460       .  S
Zr409       O424   2.450       .  S
Zr409       O415   2.391   1_655  S
Zr409       O416   2.414       .  S
Zr409       O417   2.384       .  S
Zr409       O418   2.393       .  S
Zr410       O429   2.437       .  S
Zr410       O422   2.432       .  S
Zr410       O423   2.418       .  S
Zr410       O416   2.399       .  S
Zr410       O417   2.390       .  S
Zr411       O413   2.437       .  S
Zr411       O435   2.440       .  S
Zr411       O437   2.423       .  S
Zr411       O415   2.387       .  S
Zr411       O418   2.391   1_455  S
Zr412       O438   2.433       .  S
Zr412       O439   2.438       .  S
Zr412       O414   2.437       .  S
Zr412       O415   2.378       .  S
Zr412       O416   2.402   1_455  S
O413        H450   0.990       .  S
O414        H445   0.990       .  S
O414        H459   0.990       .  S
O416        H442   0.966       .  S
O417       Zr427   2.377       .  S
O418       Zr427   2.387       .  S
O418        H443   0.966       .  S
C419       C1581   1.489       .  S
C420       C1609   1.493       .  S
C421       C1637   1.480       .  S
O422        H458   0.990   1_655  S
O423        C425   1.282       .  A
O424        C425   1.285       .  A
C425       C1626   1.488       .  S
O426       Zr427   2.435   1_455  S
O426        H455   0.990       .  S
Zr427       O430   2.432       .  S
Zr427       O431   2.440       .  S
Zr427       O432   2.415       .  S
O428        C433   1.285       .  A
O429        H446   0.990       .  S
O429        H461   0.990       .  S
O430        H447   0.988       .  S
O431        H451   0.991       .  S
O431        H460   0.990       .  S
O432        C433   1.281       .  A
C433       C1595   1.490       .  S
O434        H453   0.991       .  S
O434        H457   0.991       .  S
O435        H449   0.990       .  S
O435        H456   0.989       .  S
O436        C440   1.290   1_655  A
O437        C440   1.282       .  A
O438        H448   0.990       .  S
O439        H452   0.990       .  S
C440       C1567   1.493       .  S
Zr463       O464   2.438       .  S
Zr463       O465   2.437       .  S
Zr463       O466   2.441       .  S
Zr463       O469   2.448       .  S
Zr463       O471   2.382       .  S
Zr463       O472   2.376       .  S
Zr463       O473   2.409       .  S
Zr463       O474   2.401       .  S
O464        H520   0.990       .  S
O464        H528   0.990       .  S
O465        C485   1.285       .  A
O466        C487   1.286       .  A
O467       Zr477   2.419       .  S
O467        C486   1.282       .  A
O468       Zr476   2.440       .  S
O468        C487   1.285       .  A
O469        C486   1.288       .  A
O470       Zr478   2.444       .  S
O470        C485   1.287       .  A
O471       Zr476   2.389       .  S
O471       Zr478   2.367       .  S
O472       Zr477   2.380       .  S
O472       Zr478   2.375       .  S
O472        H507   0.965       .  S
O473       Zr476   2.395       .  S
O473       Zr493   2.403       .  S
O473        H510   0.966       .  S
O474       Zr477   2.384       .  S
O474       Zr493   2.390       .  S
Zr475       O500   2.438       .  S
Zr475       O494   2.449       .  S
Zr475       O502   2.478       .  S
Zr475       O490   2.449       .  S
Zr475       O481   2.401       .  S
Zr475       O482   2.418       .  S
Zr475       O483   2.389       .  S
Zr475       O484   2.385       .  S
Zr476       O495   2.438       .  S
Zr476       O488   2.435       .  S
Zr476       O489   2.437       .  S
Zr476       O482   2.399       .  S
Zr476       O483   2.391       .  S
Zr477       O479   2.434       .  S
Zr477       O501   2.438       .  S
Zr477       O503   2.416       .  S
Zr477       O481   2.394       .  S
Zr477       O484   2.388       .  S
Zr478       O504   2.432       .  S
Zr478       O505   2.435       .  S
Zr478       O480   2.438       .  S
Zr478       O481   2.399       .  S
Zr478       O482   2.402       .  S
O479        H516   0.990       .  S
O480        H511   0.990       .  S
O480        H525   0.990       .  S
O482        H508   0.966       .  S
O483       Zr493   2.374       .  S
O484       Zr493   2.384       .  S
O484        H509   0.965       .  S
C485       C1528   1.493       .  S
C486       C1553   1.482       .  S
C487       C1640   1.483       .  S
O488        H524   0.990       .  S
O489        C491   1.286       .  A
O490        C491   1.287       .  A
C491       C1542   1.497   1_455  S
O492       Zr493   2.440       .  S
O492        H521   0.990       .  S
Zr493       O496   2.437       .  S
Zr493       O497   2.439       .  S
Zr493       O498   2.419       .  S
O494        C499   1.286       .  A
O495        H512   0.990       .  S
O495        H527   0.990       .  S
O496        H513   0.990       .  S
O497        H517   0.990       .  S
O497        H526   0.990       .  S
O498        C499   1.282       .  A
C499       C1514   1.488       .  S
O500        H519   0.989       .  S
O500        H523   0.990       .  S
O501        H515   0.990       .  S
O501        H522   0.990       .  S
O502        C506   1.293       .  A
O503        C506   1.281       .  A
O504        H514   0.990       .  S
O505        H518   0.990       .  S
C506       C1791   1.517       .  S
Zr529       O530   2.440       .  S
Zr529       O531   2.433       .  S
Zr529       O532   2.420       .  S
Zr529       O535   2.440       .  S
Zr529       O537   2.386       .  S
Zr529       O538   2.381       .  S
Zr529       O539   2.407       .  S
Zr529       O540   2.398       .  S
O530        H586   0.990       .  S
O530        H594   0.990       .  S
O531        C551   1.285       .  A
O532        C553   1.283       .  A
O533       Zr543   2.432       .  S
O533        C552   1.285       .  A
O534       Zr542   2.450       .  S
O534        C553   1.289       .  A
O535        C552   1.284       .  A
O536       Zr544   2.430       .  S
O536        C551   1.282       .  A
O537       Zr542   2.393       .  S
O537       Zr544   2.368       .  S
O538       Zr543   2.385       .  S
O538       Zr544   2.382       .  S
O538        H573   0.965       .  S
O539       Zr542   2.395       .  S
O539       Zr559   2.398       .  S
O539        H576   0.966       .  S
O540       Zr543   2.383       .  S
O540       Zr559   2.392       .  S
Zr541       O566   2.443       .  S
Zr541       O560   2.454       .  S
Zr541       O568   2.448       .  S
Zr541       O556   2.430       .  S
Zr541       O547   2.397       .  S
Zr541       O548   2.424       .  S
Zr541       O549   2.379       .  S
Zr541       O550   2.381       .  S
Zr542       O561   2.434       .  S
Zr542       O554   2.433       .  S
Zr542       O555   2.445       .  S
Zr542       O548   2.406       .  S
Zr542       O549   2.393       .  S
Zr543       O545   2.433       .  S
Zr543       O567   2.441       .  S
Zr543       O569   2.409       .  S
Zr543       O547   2.391       .  S
Zr543       O550   2.396       .  S
Zr544       O570   2.434       .  S
Zr544       O571   2.435       .  S
Zr544       O546   2.437       .  S
Zr544       O547   2.388       .  S
Zr544       O548   2.406       .  S
O545        H582   0.990       .  S
O546        H577   0.990       .  S
O546        H591   0.990       .  S
O548        H574   0.965       .  S
O549       Zr559   2.377       .  S
O550       Zr559   2.387       .  S
O550        H575   0.965       .  S
C551       C1556   1.481       .  S
C552       C1486   1.501       .  S
C553       C1500   1.495       .  S
O554        H590   0.989       .  S
O555        C557   1.287       .  A
O556        C557   1.281       .  A
C557       C1469   1.488       .  S
O558       Zr559   2.438       .  S
O558        H587   0.990   1_565  S
Zr559       O562   2.435       .  S
Zr559       O563   2.441   1_565  S
Zr559       O564   2.416   1_565  S
O560        C565   1.286   1_565  A
O561        H578   0.990       .  S
O561        H593   0.990       .  S
O562        H579   0.990   1_565  S
O563        H583   0.990       .  S
O563        H592   0.990       .  S
O564        C565   1.281       .  A
C565       C1539   1.494       .  S
O566        H585   0.990       .  S
O566        H589   0.990       .  S
O567        H581   0.990       .  S
O567        H588   0.990       .  S
O568        C572   1.288       .  A
O569        C572   1.280       .  A
O570        H580   0.990       .  S
O571        H584   0.990       .  S
C572       C1665   1.484       .  S
Zr595       O596   2.433       .  S
Zr595       O597   2.431       .  S
Zr595       O598   2.437       .  S
Zr595       O601   2.436       .  S
Zr595       O603   2.377       .  S
Zr595       O604   2.378       .  S
Zr595       O605   2.406       .  S
Zr595       O606   2.405       .  S
O596        H652   0.990       .  S
O596        H660   0.989       .  S
O597        C617   1.283       .  A
O598        C619   1.286       .  A
O599       Zr609   2.435       .  S
O599        C618   1.285       .  A
O600       Zr608   2.431       .  S
O600        C619   1.284       .  A
O601        C618   1.285       .  A
O602       Zr610   2.433       .  S
O602        C617   1.285       .  A
O603       Zr608   2.384       .  S
O603       Zr610   2.371       .  S
O604       Zr609   2.381       .  S
O604       Zr610   2.374       .  S
O604        H639   0.966       .  S
O605       Zr608   2.395       .  S
O605       Zr625   2.408       .  S
O605        H642   0.965       .  S
O606       Zr609   2.383       .  S
O606       Zr625   2.396       .  S
Zr607       O632   2.439       .  S
Zr607       O626   2.453       .  S
Zr607       O634   2.474       .  S
Zr607       O622   2.454       .  S
Zr607       O613   2.400       .  S
Zr607       O614   2.414       .  S
Zr607       O615   2.386       .  S
Zr607       O616   2.392       .  S
Zr608       O627   2.434       .  S
Zr608       O620   2.432       .  S
Zr608       O621   2.420       .  S
Zr608       O614   2.397       .  S
Zr608       O615   2.390       .  S
Zr609       O611   2.434       .  S
Zr609       O633   2.434       .  S
Zr609       O635   2.408       .  S
Zr609       O613   2.393       .  S
Zr609       O616   2.401       .  S
Zr610       O636   2.435       .  S
Zr610       O637   2.437       .  S
Zr610       O612   2.437       .  S
Zr610       O613   2.393       .  S
Zr610       O614   2.394       .  S
O611        H648   0.990       .  S
O612        H643   0.990       .  S
O612        H657   0.990       .  S
O614        H640   0.966       .  S
O615       Zr625   2.375       .  S
O616       Zr625   2.384       .  S
O616        H641   0.965       .  S
C617       C1441   1.485       .  S
C618       C1584   1.489       .  S
C619       C1497   1.490       .  S
O620        H656   0.990       .  S
O621        C623   1.283       .  A
O622        C623   1.288       .  A
C623       C1598   1.490       .  S
O624       Zr625   2.435       .  S
O624        H653   0.990       .  S
Zr625       O628   2.434       .  S
Zr625       O629   2.441       .  S
Zr625       O630   2.424       .  S
O626        C631   1.287       .  A
O627        H644   0.989       .  S
O627        H659   0.990       .  S
O628        H645   0.990       .  S
O629        H649   0.990       .  S
O629        H658   0.989       .  S
O630        C631   1.282       .  A
C631       C1455   1.494       .  S
O632        H651   0.989       .  S
O632        H655   0.990       .  S
O633        H647   0.989       .  S
O633        H654   0.989       .  S
O634        C638   1.293       .  A
O635        C638   1.279       .  A
O636        H646   0.990       .  S
O637        H650   0.990       .  S
C638       C1427   1.516       .  S
Zr661       O662   2.439       .  S
Zr661       O663   2.440       .  S
Zr661       O664   2.444       .  S
Zr661       O667   2.441       .  S
Zr661       O669   2.381   1_565  S
Zr661       O670   2.385       .  S
Zr661       O671   2.410   1_565  S
Zr661       O672   2.409   1_565  S
O662        H718   0.990       .  S
O662        H726   0.990       .  S
O663        C683   1.285       .  A
O664        C685   1.287   1_565  A
O665       Zr675   2.427   1_565  S
O665        C684   1.282       .  A
O666       Zr674   2.425       .  S
O666        C685   1.283       .  A
O667        C684   1.286       .  A
O668       Zr676   2.426       .  S
O668        C683   1.283       .  A
O669       Zr674   2.387       .  S
O669       Zr676   2.361   1_545  S
O670       Zr675   2.392   1_565  S
O670       Zr676   2.381       .  S
O670        H705   0.966       .  S
O671       Zr674   2.401       .  S
O671       Zr691   2.402       .  S
O671        H708   0.966       .  S
O672       Zr675   2.387       .  S
O672       Zr691   2.402       .  S
Zr673       O698   2.441       .  S
Zr673       O692   2.446       .  S
Zr673       O700   2.462       .  S
Zr673       O688   2.450       .  S
Zr673       O679   2.392       .  S
Zr673       O680   2.418       .  S
Zr673       O681   2.383       .  S
Zr673       O682   2.392       .  S
Zr674       O693   2.438       .  S
Zr674       O686   2.435       .  S
Zr674       O687   2.420       .  S
Zr674       O680   2.398       .  S
Zr674       O681   2.392       .  S
Zr675       O677   2.433       .  S
Zr675       O699   2.439   1_545  S
Zr675       O701   2.417       .  S
Zr675       O679   2.391       .  S
Zr675       O682   2.390       .  S
Zr676       O702   2.434       .  S
Zr676       O703   2.435   1_565  S
Zr676       O678   2.439       .  S
Zr676       O679   2.386   1_565  S
Zr676       O680   2.408   1_565  S
O677        H714   0.990       .  S
O678        H709   0.990       .  S
O678        H723   0.990   1_565  S
O680        H706   0.966       .  S
O681       Zr691   2.374       .  S
O682       Zr691   2.392       .  S
O682        H707   0.964       .  S
C683       C1612   1.490       .  S
C684       C1444   1.488       .  S
C685       C1416   1.483   1_545  S
O686        H722   0.990       .  S
O687        C689   1.283       .  A
O688        C689   1.285       .  A
C689       C1458   1.492       .  S
O690       Zr691   2.435       .  S
O690        H719   0.990       .  S
Zr691       O694   2.437       .  S
Zr691       O695   2.437       .  S
Zr691       O696   2.423       .  S
O692        C697   1.285       .  A
O693        H710   0.990       .  S
O693        H725   0.990       .  S
O694        H711   0.990       .  S
O695        H715   0.990       .  S
O695        H724   0.989       .  S
O696        C697   1.281       .  A
C697       C1623   1.487       .  S
O698        H717   0.990       .  S
O698        H721   0.991       .  S
O699        H713   0.990       .  S
O699        H720   0.989       .  S
O700        C704   1.290       .  A
O701        C704   1.280       .  A
O702        H712   0.990       .  S
O703        H716   0.990       .  S
C704       C1399   1.491       .  S
Zr727       O728   2.437       .  S
Zr727       O729   2.430       .  S
Zr727       O730   2.427       .  S
Zr727       O733   2.439       .  S
Zr727       O735   2.376       .  S
Zr727       O736   2.375       .  S
Zr727       O737   2.408       .  S
Zr727       O738   2.400       .  S
O728        H784   0.990       .  S
O728        H792   0.990       .  S
O729        C749   1.284       .  A
O730        C751   1.284       .  A
O731       Zr741   2.422       .  S
O731        C750   1.283       .  A
O732       Zr740   2.436       .  S
O732        C751   1.285       .  A
O733        C750   1.287       .  A
O734       Zr742   2.437       .  S
O734        C749   1.285       .  A
O735       Zr740   2.390       .  S
O735       Zr742   2.358       .  S
O736       Zr741   2.382       .  S
O736       Zr742   2.376       .  S
O736        H771   0.965       .  S
O737       Zr740   2.397       .  S
O737       Zr757   2.400       .  S
O737        H774   0.966       .  S
O738       Zr741   2.385       .  S
O738       Zr757   2.392       .  S
Zr739       O764   2.441       .  S
Zr739       O758   2.450       .  S
Zr739       O766   2.469       .  S
Zr739       O754   2.434   1_565  S
Zr739       O745   2.393       .  S
Zr739       O746   2.413       .  S
Zr739       O747   2.390       .  S
Zr739       O748   2.385       .  S
Zr740       O759   2.436       .  S
Zr740       O752   2.434   1_565  S
Zr740       O753   2.438   1_565  S
Zr740       O746   2.396       .  S
Zr740       O747   2.387       .  S
Zr741       O743   2.435       .  S
Zr741       O765   2.432       .  S
Zr741       O767   2.405       .  S
Zr741       O745   2.393       .  S
Zr741       O748   2.388       .  S
Zr742       O768   2.434       .  S
Zr742       O769   2.437       .  S
Zr742       O744   2.438   1_565  S
Zr742       O745   2.396       .  S
Zr742       O746   2.398       .  S
O743        H780   0.990       .  S
O744        H775   0.989       .  S
O744        H789   0.990       .  S
O746        H772   0.966   1_565  S
O747       Zr757   2.377       .  S
O748       Zr757   2.389       .  S
O748        H773   0.964       .  S
C749       C1483   1.506       .  S
C750       C1525   1.489       .  S
C751       C1413   1.480       .  S
O752        H788   0.990       .  S
O753        C755   1.287       .  A
O754        C755   1.283       .  A
C755       C1511   1.488       .  S
O756       Zr757   2.436       .  S
O756        H785   0.990       .  S
Zr757       O760   2.436       .  S
Zr757       O761   2.436       .  S
Zr757       O762   2.420       .  S
O758        C763   1.287       .  A
O759        H776   0.990   1_565  S
O759        H791   0.989       .  S
O760        H777   0.990       .  S
O761        H781   0.990       .  S
O761        H790   0.989       .  S
O762        C763   1.282       .  A
C763       C1472   1.490   1_455  S
O764        H783   0.990       .  S
O764        H787   0.991       .  S
O765        H779   0.989       .  S
O765        H786   0.989       .  S
O766        C770   1.289       .  A
O767        C770   1.278       .  A
O768        H778   0.990       .  S
O769        H782   0.990   1_565  S
C770       C1738   1.486       .  S
Zr793       O794   2.439       .  S
Zr793       O795   2.449       .  S
Zr793       O796   2.431       .  S
Zr793       O799   2.426       .  S
Zr793       O801   2.377       .  S
Zr793       O802   2.377       .  S
Zr793       O803   2.406       .  S
Zr793       O804   2.402       .  S
O794        H850   0.990       .  S
O794        H858   0.990       .  S
O795        C815   1.286       .  A
O796        C817   1.284       .  A
O797       Zr807   2.429       .  S
O797        C816   1.283       .  A
O798       Zr806   2.443       .  S
O798        C817   1.287       .  A
O799        C816   1.284       .  A
O800       Zr808   2.424       .  S
O800        C815   1.280       .  A
O801       Zr806   2.392       .  S
O801       Zr808   2.367       .  S
O802       Zr807   2.391       .  S
O802       Zr808   2.384       .  S
O802        H837   0.966       .  S
O803       Zr806   2.397       .  S
O803       Zr823   2.401       .  S
O803        H840   0.966       .  S
O804       Zr807   2.379       .  S
O804       Zr823   2.391       .  S
Zr805       O830   2.441       .  S
Zr805       O824   2.451       .  S
Zr805       O832   2.481       .  S
Zr805       O820   2.449       .  S
Zr805       O811   2.392       .  S
Zr805       O812   2.417       .  S
Zr805       O813   2.382       .  S
Zr805       O814   2.389       .  S
Zr806       O825   2.432       .  S
Zr806       O818   2.435       .  S
Zr806       O819   2.434       .  S
Zr806       O812   2.401       .  S
Zr806       O813   2.387       .  S
Zr807       O809   2.436       .  S
Zr807       O831   2.441       .  S
Zr807       O833   2.397       .  S
Zr807       O811   2.399       .  S
Zr807       O814   2.393       .  S
Zr808       O834   2.435       .  S
Zr808       O835   2.434       .  S
Zr808       O810   2.443       .  S
Zr808       O811   2.388       .  S
Zr808       O812   2.406       .  S
O809        H846   0.990       .  S
O810        H841   0.990       .  S
O810        H855   0.989       .  S
O812        H838   0.966       .  S
O813       Zr823   2.373       .  S
O814       Zr823   2.390       .  S
O814        H839   0.965       .  S
C815       C1346   1.483       .  S
C816       C1371   1.485       .  S
C817       C1385   1.500       .  S
O818        H854   0.990       .  S
O819        C821   1.286       .  A
O820        C821   1.287       .  A
C821       C1357   1.499       .  S
O822       Zr823   2.439       .  S
O822        H851   0.990   1_655  S
Zr823       O826   2.435       .  S
Zr823       O827   2.440   1_655  S
Zr823       O828   2.417   1_655  S
O824        C829   1.287   1_655  A
O825        H842   0.990       .  S
O825        H857   0.989       .  S
O826        H843   0.990   1_655  S
O827        H847   0.990       .  S
O827        H856   0.990       .  S
O828        C829   1.281       .  A
C829       C1329   1.490       .  S
O830        H849   0.990       .  S
O830        H853   0.990       .  S
O831        H845   0.990       .  S
O831        H852   0.990       .  S
O832        C836   1.293       .  A
O833        C836   1.277       .  A
O834        H844   0.990       .  S
O835        H848   0.990       .  S
C836       C1654   1.487       .  S
Zr859       O860   2.431       .  S
Zr859       O861   2.435       .  S
Zr859       O862   2.429       .  S
Zr859       O865   2.433       .  S
Zr859       O867   2.382       .  S
Zr859       O868   2.379       .  S
Zr859       O869   2.415       .  S
Zr859       O870   2.405       .  S
O860        H916   0.990       .  S
O860        H924   0.989       .  S
O861        C881   1.284       .  A
O862        C883   1.286       .  A
O863       Zr873   2.457       .  S
O863        C882   1.288       .  A
O864       Zr872   2.459       .  S
O864        C883   1.289       .  A
O865        C882   1.284       .  A
O866       Zr874   2.425       .  S
O866        C881   1.283       .  A
O867       Zr872   2.392       .  S
O867       Zr874   2.367       .  S
O868       Zr873   2.383       .  S
O868       Zr874   2.380       .  S
O868        H903   0.965       .  S
O869       Zr872   2.401       .  S
O869       Zr889   2.409       .  S
O869        H906   0.966       .  S
O870       Zr873   2.383       .  S
O870       Zr889   2.404       .  S
Zr871       O896   2.442       .  S
Zr871       O890   2.449       .  S
Zr871       O898   2.466       .  S
Zr871       O886   2.440       .  S
Zr871       O877   2.395       .  S
Zr871       O878   2.419       .  S
Zr871       O879   2.388       .  S
Zr871       O880   2.395       .  S
Zr872       O891   2.438       .  S
Zr872       O884   2.429       .  S
Zr872       O885   2.453       .  S
Zr872       O878   2.404       .  S
Zr872       O879   2.395       .  S
Zr873       O875   2.434       .  S
Zr873       O897   2.438       .  S
Zr873       O899   2.428       .  S
Zr873       O877   2.399       .  S
Zr873       O880   2.405       .  S
Zr874       O900   2.433       .  S
Zr874       O901   2.435       .  S
Zr874       O876   2.438       .  S
Zr874       O877   2.382       .  S
Zr874       O878   2.400       .  S
O875        H912   0.990       .  S
O876        H907   0.990       .  S
O876        H921   0.990       .  S
O878        H904   0.966       .  S
O879       Zr889   2.373       .  S
O880       Zr889   2.390       .  S
O880        H905   0.967       .  S
C881       C1276   1.482       .  S
C882       C1301   1.502       .  S
C883       C1388   1.505       .  S
O884        H920   0.990       .  S
O885        C887   1.289       .  A
O886        C887   1.284       .  A
C887       C1318   1.498       .  S
O888       Zr889   2.435       .  S
O888        H917   0.990       .  S
Zr889       O892   2.436       .  S
Zr889       O893   2.438       .  S
Zr889       O894   2.427       .  S
O890        C895   1.285       .  A
O891        H908   0.990       .  S
O891        H923   0.990       .  S
O892        H909   0.990       .  S
O893        H913   0.990       .  S
O893        H922   0.990       .  S
O894        C895   1.282       .  A
C895       C1290   1.494       .  S
O896        H915   0.990       .  S
O896        H919   0.990       .  S
O897        H911   0.990       .  S
O897        H918   0.990       .  S
O898        C902   1.290       .  A
O899        C902   1.283       .  A
O900        H910   0.990       .  S
O901        H914   0.990       .  S
C902       C1430   1.499       .  S
Zr925       O926   2.436       .  S
Zr925       O927   2.413       .  S
Zr925       O928   2.434       .  S
Zr925       O931   2.436       .  S
Zr925       O933   2.382       .  S
Zr925       O934   2.383       .  S
Zr925       O935   2.406       .  S
Zr925       O936   2.407       .  S
O926        H982   0.990       .  S
O926        H990   0.990       .  S
O927        C947   1.280       .  A
O928        C949   1.285       .  A
O929       Zr939   2.420       .  S
O929        C948   1.278       .  A
O930       Zr938   2.442       .  S
O930        C949   1.286       .  A
O931        C948   1.284       .  A
O932       Zr940   2.436       .  S
O932        C947   1.285       .  A
O933       Zr938   2.389       .  S
O933       Zr940   2.367       .  S
O934       Zr939   2.389       .  S
O934       Zr940   2.377       .  S
O934        H969   0.967       .  S
O935       Zr938   2.396       .  S
O935       Zr955   2.399       .  S
O935        H972   0.966       .  S
O936       Zr939   2.388       .  S
O936       Zr955   2.402       .  S
Zr937       O962   2.440       .  S
Zr937       O956   2.447       .  S
Zr937       O964   2.478       .  S
Zr937       O952   2.449       .  S
Zr937       O943   2.392       .  S
Zr937       O944   2.416       .  S
Zr937       O945   2.384       .  S
Zr937       O946   2.393       .  S
Zr938       O957   2.436       .  S
Zr938       O950   2.435       .  S
Zr938       O951   2.429       .  S
Zr938       O944   2.401       .  S
Zr938       O945   2.387       .  S
Zr939       O941   2.434       .  S
Zr939       O963   2.442       .  S
Zr939       O965   2.407       .  S
Zr939       O943   2.389       .  S
Zr939       O946   2.391       .  S
Zr940       O966   2.434       .  S
Zr940       O967   2.436       .  S
Zr940       O942   2.436       .  S
Zr940       O943   2.381       .  S
Zr940       O944   2.408       .  S
O941        H978   0.990       .  S
O942        H973   0.990       .  S
O942        H987   0.990       .  S
O944        H970   0.966       .  S
O945       Zr955   2.370       .  S
O946       Zr955   2.393       .  S
O946        H971   0.966       .  S
C947       C1248   1.497       .  S
C948       C1343   1.477       .  S
C949       C1259   1.487       .  S
O950        H986   0.990       .  S
O951        C953   1.285       .  A
O952        C953   1.287       .  A
C953       C1332   1.493       .  S
O954       Zr955   2.435       .  S
O954        H983   0.990       .  S
Zr955       O958   2.437       .  S
Zr955       O959   2.432       .  S
Zr955       O960   2.420       .  S
O956        C961   1.286       .  A
O957        H974   0.990       .  S
O957        H989   0.989       .  S
O958        H975   0.990       .  S
O959        H979   0.990       .  S
O959        H988   0.988       .  S
O960        C961   1.281       .  A
C961       C1234   1.485       .  S
O962        H981   0.990       .  S
O962        H985   0.990       .  S
O963        H977   0.990       .  S
O963        H984   0.990       .  S
O964        C968   1.293       .  A
O965        C968   1.278       .  A
O966        H976   0.990       .  S
O967        H980   0.990       .  S
C968       C1696   1.494       .  S
Zr991       O992   2.436       .  S
Zr991       O993   2.440       .  S
Zr991       O994   2.429       .  S
Zr991       O997   2.432       .  S
Zr991       O999   2.377       .  S
Zr991      O1000   2.384       .  S
Zr991      O1001   2.405       .  S
Zr991      O1002   2.410       .  S
O992       H1048   0.989       .  S
O992       H1056   0.990       .  S
O993       C1013   1.286       .  A
O994       C1015   1.285       .  A
O995      Zr1005   2.427       .  S
O995       C1014   1.283       .  A
O996      Zr1004   2.437   1_545  S
O996       C1015   1.285       .  A
O997       C1014   1.284       .  A
O998      Zr1006   2.450       .  S
O998       C1013   1.288       .  A
O999      Zr1004   2.385   1_545  S
O999      Zr1006   2.362       .  S
O1000     Zr1005   2.394       .  S
O1000     Zr1006   2.371       .  S
O1000      H1035   0.965       .  S
O1001     Zr1004   2.393   1_545  S
O1001     Zr1021   2.402   1_545  S
O1001      H1038   0.966       .  S
O1002     Zr1005   2.388       .  S
O1002     Zr1021   2.399   1_545  S
Zr1003     O1028   2.441       .  S
Zr1003     O1022   2.453       .  S
Zr1003     O1030   2.463       .  S
Zr1003     O1018   2.444       .  S
Zr1003     O1009   2.399   1_565  S
Zr1003     O1010   2.416       .  S
Zr1003     O1011   2.384       .  S
Zr1003     O1012   2.391       .  S
Zr1004     O1023   2.436       .  S
Zr1004     O1016   2.435       .  S
Zr1004     O1017   2.427       .  S
Zr1004     O1010   2.395       .  S
Zr1004     O1011   2.392       .  S
Zr1005     O1007   2.435       .  S
Zr1005     O1029   2.439       .  S
Zr1005     O1031   2.418       .  S
Zr1005     O1009   2.393       .  S
Zr1005     O1012   2.393   1_545  S
Zr1006     O1032   2.437       .  S
Zr1006     O1033   2.431       .  S
Zr1006     O1008   2.433       .  S
Zr1006     O1009   2.390       .  S
Zr1006     O1010   2.407   1_545  S
O1007      H1044   0.990       .  S
O1008      H1039   0.990       .  S
O1008      H1053   0.990       .  S
O1010      H1036   0.966       .  S
O1011     Zr1021   2.378       .  S
O1012     Zr1021   2.390       .  S
O1012      H1037   0.965       .  S
C1013      C1304   1.505       .  S
C1014      C1220   1.480       .  S
C1015      C1262   1.486       .  S
O1016      H1052   0.990       .  S
O1017      C1019   1.284       .  A
O1018      C1019   1.286       .  A
C1019      C1203   1.495       .  S
O1020     Zr1021   2.435   1_545  S
O1020      H1049   0.990       .  S
Zr1021     O1024   2.435       .  S
Zr1021     O1025   2.435       .  S
Zr1021     O1026   2.422       .  S
O1022      C1027   1.287       .  A
O1023      H1040   0.990       .  S
O1023      H1055   0.990       .  S
O1024      H1041   0.990       .  S
O1025      H1045   0.990       .  S
O1025      H1054   0.988       .  S
O1026      C1027   1.282       .  A
C1027      C1315   1.494       .  S
O1028      H1047   0.990       .  S
O1028      H1051   0.990       .  S
O1029      H1043   0.990       .  S
O1029      H1050   0.989       .  S
O1030      C1034   1.288   1_565  A
O1031      C1034   1.280       .  A
O1032      H1042   0.990       .  S
O1033      H1046   0.990       .  S
C1034      C1402   1.489       .  S
Zr1057     O1058   2.434       .  S
Zr1057     O1059   2.420       .  S
Zr1057     O1060   2.434       .  S
Zr1057     O1063   2.433       .  S
Zr1057     O1065   2.378       .  S
Zr1057     O1066   2.374       .  S
Zr1057     O1067   2.404   1_655  S
Zr1057     O1068   2.401       .  S
O1058      H1114   0.990       .  S
O1058      H1122   0.988       .  S
O1059      C1079   1.281       .  A
O1060      C1081   1.285       .  A
O1061     Zr1071   2.439       .  S
O1061      C1080   1.286       .  A
O1062     Zr1070   2.422       .  S
O1062      C1081   1.283   1_455  A
O1063      C1080   1.285       .  A
O1064     Zr1072   2.431       .  S
O1064      C1079   1.284       .  A
O1065     Zr1070   2.391   1_655  S
O1065     Zr1072   2.371       .  S
O1066     Zr1071   2.381       .  S
O1066     Zr1072   2.374       .  S
O1066      H1101   0.964       .  S
O1067     Zr1070   2.400       .  S
O1067     Zr1087   2.400       .  S
O1067      H1104   0.966       .  S
O1068     Zr1071   2.381       .  S
O1068     Zr1087   2.392   1_655  S
Zr1069     O1094   2.440       .  S
Zr1069     O1088   2.450       .  S
Zr1069     O1096   2.461       .  S
Zr1069     O1084   2.460       .  S
Zr1069     O1075   2.404       .  S
Zr1069     O1076   2.404       .  S
Zr1069     O1077   2.383       .  S
Zr1069     O1078   2.390       .  S
Zr1070     O1089   2.435       .  S
Zr1070     O1082   2.433       .  S
Zr1070     O1083   2.430       .  S
Zr1070     O1076   2.390       .  S
Zr1070     O1077   2.387       .  S
Zr1071     O1073   2.435       .  S
Zr1071     O1095   2.437       .  S
Zr1071     O1097   2.404   1_655  S
Zr1071     O1075   2.399   1_655  S
Zr1071     O1078   2.394   1_655  S
Zr1072     O1098   2.435       .  S
Zr1072     O1099   2.435   1_655  S
Zr1072     O1074   2.438       .  S
Zr1072     O1075   2.396   1_655  S
Zr1072     O1076   2.398   1_655  S
O1073      H1110   0.990       .  S
O1074      H1105   0.990       .  S
O1074      H1119   0.990   1_655  S
O1076      H1102   0.966       .  S
O1077     Zr1087   2.375       .  S
O1078     Zr1087   2.379       .  S
O1078      H1103   0.965       .  S
C1079      C1217   1.477       .  S
C1080      C1273   1.489       .  S
C1081      C1189   1.485       .  S
O1082      H1118   0.990       .  S
O1083      C1085   1.284       .  A
O1084      C1085   1.289       .  A
C1085      C1287   1.496       .  S
O1086     Zr1087   2.436       .  S
O1086      H1115   0.990   1_455  S
Zr1087     O1090   2.433       .  S
Zr1087     O1091   2.440       .  S
Zr1087     O1092   2.425       .  S
O1088      C1093   1.288       .  A
O1089      H1106   0.990       .  S
O1089      H1121   0.990       .  S
O1090      H1107   0.990       .  S
O1091      H1111   0.990       .  S
O1091      H1120   0.989       .  S
O1092      C1093   1.283       .  A
C1093      C1206   1.495       .  S
O1094      H1113   0.989       .  S
O1094      H1117   0.990       .  S
O1095      H1109   0.989       .  S
O1095      H1116   0.989       .  S
O1096      C1100   1.290       .  A
O1097      C1100   1.278       .  A
O1098      H1108   0.990       .  S
O1099      H1112   0.990       .  S
C1100      C1570   1.509       .  S
Zr1123     O1124   2.440       .  S
Zr1123     O1125   2.438       .  S
Zr1123     O1126   2.422       .  S
Zr1123     O1129   2.427       .  S
Zr1123     O1131   2.378       .  S
Zr1123     O1132   2.378       .  S
Zr1123     O1133   2.409       .  S
Zr1123     O1134   2.395       .  S
O1124      H1180   0.990       .  S
O1124      H1188   0.990       .  S
O1125      C1145   1.286       .  A
O1126      C1147   1.282       .  A
O1127     Zr1137   2.432       .  S
O1127      C1146   1.285       .  A
O1128     Zr1136   2.439       .  S
O1128      C1147   1.286       .  A
O1129      C1146   1.283       .  A
O1130     Zr1138   2.419       .  S
O1130      C1145   1.280       .  A
O1131     Zr1136   2.392       .  S
O1131     Zr1138   2.367       .  S
O1132     Zr1137   2.386       .  S
O1132     Zr1138   2.384       .  S
O1132      H1167   0.967       .  S
O1133     Zr1136   2.398       .  S
O1133     Zr1153   2.405       .  S
O1133      H1170   0.966       .  S
O1134     Zr1137   2.380       .  S
O1134     Zr1153   2.389       .  S
Zr1135     O1160   2.442       .  S
Zr1135     O1154   2.450       .  S
Zr1135     O1162   2.453       .  S
Zr1135     O1150   2.428       .  S
Zr1135     O1141   2.399       .  S
Zr1135     O1142   2.412       .  S
Zr1135     O1143   2.385       .  S
Zr1135     O1144   2.381       .  S
Zr1136     O1155   2.434       .  S
Zr1136     O1148   2.434   1_655  S
Zr1136     O1149   2.446   1_655  S
Zr1136     O1142   2.396       .  S
Zr1136     O1143   2.392       .  S
Zr1137     O1139   2.434       .  S
Zr1137     O1161   2.439       .  S
Zr1137     O1163   2.401       .  S
Zr1137     O1141   2.398       .  S
Zr1137     O1144   2.395       .  S
Zr1138     O1164   2.436       .  S
Zr1138     O1165   2.434       .  S
Zr1138     O1140   2.435   1_655  S
Zr1138     O1141   2.392       .  S
Zr1138     O1142   2.393       .  S
O1139      H1176   0.990       .  S
O1140      H1171   0.990       .  S
O1140      H1185   0.990       .  S
O1142      H1168   0.965       .  S
O1143     Zr1153   2.380       .  S
O1144     Zr1153   2.386       .  S
O1144      H1169   0.966       .  S
C1145      C1374   1.485       .  S
C1146      C1245   1.499       .  S
C1147      C1192   1.490       .  S
O1148      H1184   0.989       .  S
O1149      C1151   1.287       .  A
O1150      C1151   1.283   1_655  A
C1151      C1231   1.488       .  S
O1152     Zr1153   2.437       .  S
O1152      H1181   0.990       .  S
Zr1153     O1156   2.435       .  S
Zr1153     O1157   2.441       .  S
Zr1153     O1158   2.419       .  S
O1154      C1159   1.286       .  A
O1155      H1172   0.989       .  S
O1155      H1187   0.990       .  S
O1156      H1173   0.990       .  S
O1157      H1177   0.990       .  S
O1157      H1186   0.990       .  S
O1158      C1159   1.282       .  A
C1159      C1360   1.495       .  S
O1160      H1179   0.990       .  S
O1160      H1183   0.991       .  S
O1161      H1175   0.990       .  S
O1161      H1182   0.990       .  S
O1162      C1166   1.286       .  A
O1163      C1166   1.278       .  A
O1164      H1174   0.990       .  S
O1165      H1178   0.990       .  S
C1166      C1861   1.476       .  S
C1189      C1190   1.410       .  A
C1189      C1194   1.415       .  A
C1190      C1191   1.407       .  A
C1190      C1195   1.452       .  S
C1191      C1192   1.416       .  A
C1191      C1198   1.449       .  S
C1192      C1193   1.415       .  A
C1193      C1194   1.414       .  A
C1193      C1196   1.450       .  S
C1194      C1197   1.451   1_655  S
C1195      N1202   1.157       .  T
C1196      N1201   1.157       .  T
C1197      N1199   1.157       .  T
C1198      N1200   1.156       .  T
C1203      C1204   1.417       .  A
C1203      C1208   1.414       .  A
C1204      C1205   1.418       .  A
C1204      C1209   1.450       .  S
C1205      C1206   1.414       .  A
C1205      C1212   1.450       .  S
C1206      C1207   1.416       .  A
C1207      C1208   1.409       .  A
C1207      C1210   1.451       .  S
C1208      C1211   1.453       .  S
C1209      N1216   1.157       .  T
C1210      N1215   1.157       .  T
C1211      N1213   1.157       .  T
C1212      N1214   1.157       .  T
C1217      C1218   1.412       .  A
C1217      C1222   1.410       .  A
C1218      C1219   1.412       .  A
C1218      C1223   1.451       .  S
C1219      C1220   1.413       .  A
C1219      C1226   1.450       .  S
C1220      C1221   1.413       .  A
C1221      C1222   1.406       .  A
C1221      C1224   1.452       .  S
C1222      C1225   1.451       .  S
C1223      N1230   1.157       .  T
C1224      N1229   1.157       .  T
C1225      N1227   1.157       .  T
C1226      N1228   1.157       .  T
C1231      C1232   1.415       .  A
C1231      C1236   1.413       .  A
C1232      C1233   1.412       .  A
C1232      C1237   1.451       .  S
C1233      C1234   1.412       .  A
C1233      C1240   1.450       .  S
C1234      C1235   1.413       .  A
C1235      C1236   1.412       .  A
C1235      C1238   1.450       .  S
C1236      C1239   1.451       .  S
C1237      N1244   1.157   1_455  T
C1238      N1243   1.157       .  T
C1239      N1241   1.157       .  T
C1240      N1242   1.157       .  T
C1245      C1246   1.417       .  A
C1245      C1250   1.419       .  A
C1246      C1247   1.408       .  A
C1246      C1251   1.452       .  S
C1247      C1248   1.415       .  A
C1247      C1254   1.452       .  S
C1248      C1249   1.421       .  A
C1249      C1250   1.414       .  A
C1249      C1252   1.453       .  S
C1250      C1253   1.452       .  S
C1251      N1258   1.157       .  T
C1252      N1257   1.157       .  T
C1253      N1255   1.158       .  T
C1254      N1256   1.157       .  T
C1259      C1260   1.414       .  A
C1259      C1264   1.414       .  A
C1260      C1261   1.414       .  A
C1260      C1265   1.450       .  S
C1261      C1262   1.414       .  A
C1261      C1268   1.451       .  S
C1262      C1263   1.412       .  A
C1263      C1264   1.410       .  A
C1263      C1266   1.452       .  S
C1264      C1267   1.449       .  S
C1265      N1272   1.157       .  T
C1266      N1271   1.157       .  T
C1267      N1269   1.156       .  T
C1268      N1270   1.157       .  T
C1273      C1274   1.417       .  A
C1273      C1278   1.414       .  A
C1274      C1275   1.415       .  A
C1274      C1279   1.450       .  S
C1275      C1276   1.411       .  A
C1275      C1282   1.451       .  S
C1276      C1277   1.411       .  A
C1277      C1278   1.408       .  A
C1277      C1280   1.454       .  S
C1278      C1281   1.449       .  S
C1279      N1286   1.157       .  T
C1280      N1285   1.157       .  T
C1281      N1283   1.156       .  T
C1282      N1284   1.157       .  T
C1287      C1288   1.416       .  A
C1287      C1292   1.414       .  A
C1288      C1289   1.419       .  A
C1288      C1293   1.450       .  S
C1289      C1290   1.414       .  A
C1289      C1296   1.450       .  S
C1290      C1291   1.414       .  A
C1291      C1292   1.411       .  A
C1291      C1294   1.453       .  S
C1292      C1295   1.449       .  S
C1293      N1300   1.157       .  T
C1294      N1299   1.157       .  T
C1295      N1297   1.156       .  T
C1296      N1298   1.157       .  T
C1301      C1302   1.417       .  A
C1301      C1306   1.413       .  A
C1302      C1303   1.421       .  A
C1302      C1307   1.450       .  S
C1303      C1304   1.420       .  A
C1303      C1310   1.451       .  S
C1304      C1305   1.416       .  A
C1305      C1306   1.414       .  A
C1305      C1308   1.450       .  S
C1306      C1309   1.452       .  S
C1307      N1314   1.157       .  T
C1308      N1313   1.157       .  T
C1309      N1311   1.157       .  T
C1310      N1312   1.158       .  T
C1315      C1316   1.413       .  A
C1315      C1320   1.414       .  A
C1316      C1317   1.413       .  A
C1316      C1321   1.450       .  S
C1317      C1318   1.413       .  A
C1317      C1324   1.450       .  S
C1318      C1319   1.418       .  A
C1319      C1320   1.417       .  A
C1319      C1322   1.449       .  S
C1320      C1323   1.452       .  S
C1321      N1328   1.157       .  T
C1322      N1327   1.157       .  T
C1323      N1325   1.158       .  T
C1324      N1326   1.157       .  T
C1329      C1330   1.413       .  A
C1329      C1334   1.414       .  A
C1330      C1331   1.417       .  A
C1330      C1335   1.450       .  S
C1331      C1332   1.415   1_565  A
C1331      C1338   1.449       .  S
C1332      C1333   1.415   1_545  A
C1333      C1334   1.410       .  A
C1333      C1336   1.452   1_565  S
C1334      C1337   1.452       .  S
C1335      N1342   1.157       .  T
C1336      N1341   1.157       .  T
C1337      N1339   1.157       .  T
C1338      N1340   1.157       .  T
C1343      C1344   1.412       .  A
C1343      C1348   1.409       .  A
C1344      C1345   1.413       .  A
C1344      C1349   1.452       .  S
C1345      C1346   1.414       .  A
C1345      C1352   1.451       .  S
C1346      C1347   1.412       .  A
C1347      C1348   1.410       .  A
C1347      C1350   1.450       .  S
C1348      C1351   1.451       .  S
C1349      N1356   1.158       .  T
C1350      N1355   1.157       .  T
C1351      N1353   1.157       .  T
C1352      N1354   1.158       .  T
C1357      C1358   1.418       .  A
C1357      C1362   1.417       .  A
C1358      C1359   1.418       .  A
C1358      C1363   1.450       .  S
C1359      C1360   1.414   1_565  A
C1359      C1366   1.451       .  S
C1360      C1361   1.415   1_545  A
C1361      C1362   1.411       .  A
C1361      C1364   1.453   1_565  S
C1362      C1365   1.451       .  S
C1363      N1370   1.157       .  T
C1364      N1369   1.157       .  T
C1365      N1367   1.157       .  T
C1366      N1368   1.158   1_565  T
C1371      C1372   1.415       .  A
C1371      C1376   1.412       .  A
C1372      C1373   1.413       .  A
C1372      C1377   1.451       .  S
C1373      C1374   1.414       .  A
C1373      C1380   1.450       .  S
C1374      C1375   1.408       .  A
C1375      C1376   1.405       .  A
C1375      C1378   1.449       .  S
C1376      C1379   1.448       .  S
C1377      N1384   1.157   1_655  T
C1378      N1383   1.157       .  T
C1379      N1381   1.156       .  T
C1380      N1382   1.157   1_655  T
C1385      C1386   1.417       .  A
C1385      C1390   1.416       .  A
C1386      C1387   1.419       .  A
C1386      C1391   1.451       .  S
C1387      C1388   1.420       .  A
C1387      C1394   1.449       .  S
C1388      C1389   1.416       .  A
C1389      C1390   1.408       .  A
C1389      C1392   1.450       .  S
C1390      C1393   1.451       .  S
C1391      N1398   1.157       .  T
C1392      N1397   1.157       .  T
C1393      N1395   1.157       .  T
C1394      N1396   1.157       .  T
C1399      C1400   1.413       .  A
C1399      C1404   1.416       .  A
C1400      C1401   1.410   1_554  A
C1400      C1405   1.450       .  S
C1401      C1402   1.413       .  A
C1401      C1408   1.449       .  S
C1402      C1403   1.414       .  A
C1403      C1404   1.415   1_556  A
C1403      C1406   1.451       .  S
C1404      C1407   1.451       .  S
C1405      N1412   1.156       .  T
C1406      N1411   1.157       .  T
C1407      N1409   1.157       .  T
C1408      N1410   1.156       .  T
C1413      C1414   1.412       .  A
C1413      C1418   1.411       .  A
C1414      C1415   1.409       .  A
C1414      C1419   1.450       .  S
C1415      C1416   1.411       .  A
C1415      C1422   1.451   1_565  S
C1416      C1417   1.415       .  A
C1417      C1418   1.412       .  A
C1417      C1420   1.451       .  S
C1418      C1421   1.451       .  S
C1419      N1426   1.157       .  T
C1420      N1425   1.157       .  T
C1421      N1423   1.157       .  T
C1422      N1424   1.157       .  T
C1427      C1428   1.415       .  A
C1427      C1432   1.427       .  A
C1428      C1429   1.414   1_554  A
C1428      C1433   1.450       .  S
C1429      C1430   1.419       .  A
C1429      C1436   1.451       .  S
C1430      C1431   1.412       .  A
C1431      C1432   1.416   1_556  A
C1431      C1434   1.453       .  S
C1432      C1435   1.451       .  S
C1433      N1440   1.157       .  T
C1434      N1439   1.157       .  T
C1435      N1437   1.157       .  T
C1436      N1438   1.157       .  T
C1441      C1442   1.414       .  A
C1441      C1446   1.410       .  A
C1442      C1443   1.417       .  A
C1442      C1447   1.450       .  S
C1443      C1444   1.415       .  A
C1443      C1450   1.450       .  S
C1444      C1445   1.414       .  A
C1445      C1446   1.407       .  A
C1445      C1448   1.450       .  S
C1446      C1449   1.452       .  S
C1447      N1454   1.157       .  T
C1448      N1453   1.156       .  T
C1449      N1451   1.157       .  T
C1450      N1452   1.157       .  T
C1455      C1456   1.414       .  A
C1455      C1460   1.416       .  A
C1456      C1457   1.418       .  A
C1456      C1461   1.450       .  S
C1457      C1458   1.415       .  A
C1457      C1464   1.450       .  S
C1458      C1459   1.413       .  A
C1459      C1460   1.410       .  A
C1459      C1462   1.454       .  S
C1460      C1463   1.450       .  S
C1461      N1468   1.157       .  T
C1462      N1467   1.157       .  T
C1463      N1465   1.157       .  T
C1464      N1466   1.157       .  T
C1469      C1470   1.415       .  A
C1469      C1474   1.411       .  A
C1470      C1471   1.414       .  A
C1470      C1475   1.450       .  S
C1471      C1472   1.414       .  A
C1471      C1478   1.451   1_655  S
C1472      C1473   1.414       .  A
C1473      C1474   1.412       .  A
C1473      C1476   1.450       .  S
C1474      C1477   1.451       .  S
C1475      N1482   1.157   1_565  T
C1476      N1481   1.157       .  T
C1477      N1479   1.157       .  T
C1478      N1480   1.157   1_565  T
C1483      C1484   1.423       .  A
C1483      C1488   1.420       .  A
C1484      C1485   1.417       .  A
C1484      C1489   1.453       .  S
C1485      C1486   1.417       .  A
C1485      C1492   1.452       .  S
C1486      C1487   1.415       .  A
C1487      C1488   1.410       .  A
C1487      C1490   1.453       .  S
C1488      C1491   1.452       .  S
C1489      N1496   1.157       .  T
C1490      N1495   1.157   1_565  T
C1491      N1493   1.157   1_565  T
C1492      N1494   1.158       .  T
C1497      C1498   1.410       .  A
C1497      C1502   1.416       .  A
C1498      C1499   1.407       .  A
C1498      C1503   1.452       .  S
C1499      C1500   1.416       .  A
C1499      C1506   1.448       .  S
C1500      C1501   1.416       .  A
C1501      C1502   1.417       .  A
C1501      C1504   1.451       .  S
C1502      C1505   1.450       .  S
C1503      N1510   1.157       .  T
C1504      N1509   1.157       .  T
C1505      N1507   1.157       .  T
C1506      N1508   1.156       .  T
C1511      C1512   1.416       .  A
C1511      C1516   1.411       .  A
C1512      C1513   1.418       .  A
C1512      C1517   1.450       .  S
C1513      C1514   1.414       .  A
C1513      C1520   1.450       .  S
C1514      C1515   1.413       .  A
C1515      C1516   1.407       .  A
C1515      C1518   1.450       .  S
C1516      C1519   1.453       .  S
C1517      N1524   1.157       .  T
C1518      N1523   1.156       .  T
C1519      N1521   1.157       .  T
C1520      N1522   1.157       .  T
C1525      C1526   1.413       .  A
C1525      C1530   1.413       .  A
C1526      C1527   1.410       .  A
C1526      C1531   1.452       .  S
C1527      C1528   1.416       .  A
C1527      C1534   1.452       .  S
C1528      C1529   1.416       .  A
C1529      C1530   1.413       .  A
C1529      C1532   1.449       .  S
C1530      C1533   1.451       .  S
C1531      N1538   1.157       .  T
C1532      N1537   1.157       .  T
C1533      N1535   1.157       .  T
C1534      N1536   1.157       .  T
C1539      C1540   1.414       .  A
C1539      C1544   1.415       .  A
C1540      C1541   1.418       .  A
C1540      C1545   1.451       .  S
C1541      C1542   1.417       .  A
C1541      C1548   1.450       .  S
C1542      C1543   1.415       .  A
C1543      C1544   1.411       .  A
C1543      C1546   1.450   1_655  S
C1544      C1547   1.453       .  S
C1545      N1552   1.157       .  T
C1546      N1551   1.157       .  T
C1547      N1549   1.157       .  T
C1548      N1550   1.157       .  T
C1553      C1554   1.411       .  A
C1553      C1558   1.413       .  A
C1554      C1555   1.409       .  A
C1554      C1559   1.447       .  S
C1555      C1556   1.410       .  A
C1555      C1562   1.452       .  S
C1556      C1557   1.412       .  A
C1557      C1558   1.413       .  A
C1557      C1560   1.451       .  S
C1558      C1561   1.450       .  S
C1559      N1566   1.155       .  T
C1560      N1565   1.157       .  T
C1561      N1563   1.157       .  T
C1562      N1564   1.157       .  T
C1567      C1568   1.409   1_455  A
C1567      C1572   1.420       .  A
C1568      C1569   1.410   1_554  A
C1568      C1573   1.452       .  S
C1569      C1570   1.426   1_655  A
C1569      C1576   1.451       .  S
C1570      C1571   1.417       .  A
C1571      C1572   1.413   1_556  A
C1571      C1574   1.451       .  S
C1572      C1575   1.453       .  S
C1573      N1580   1.157       .  T
C1574      N1579   1.157       .  T
C1575      N1577   1.157       .  T
C1576      N1578   1.157       .  T
C1581      C1582   1.413       .  A
C1581      C1586   1.415       .  A
C1582      C1583   1.408       .  A
C1582      C1587   1.451       .  S
C1583      C1584   1.412       .  A
C1583      C1590   1.450       .  S
C1584      C1585   1.414       .  A
C1585      C1586   1.415       .  A
C1585      C1588   1.450       .  S
C1586      C1589   1.449       .  S
C1587      N1594   1.157       .  T
C1588      N1593   1.157       .  T
C1589      N1591   1.157       .  T
C1590      N1592   1.156       .  T
C1595      C1596   1.415       .  A
C1595      C1600   1.415       .  A
C1596      C1597   1.417       .  A
C1596      C1601   1.450       .  S
C1597      C1598   1.415       .  A
C1597      C1604   1.450       .  S
C1598      C1599   1.413       .  A
C1599      C1600   1.406       .  A
C1599      C1602   1.450       .  S
C1600      C1603   1.454       .  S
C1601      N1608   1.157       .  T
C1602      N1607   1.156       .  T
C1603      N1605   1.157       .  T
C1604      N1606   1.157       .  T
C1609      C1610   1.415       .  A
C1609      C1614   1.417       .  A
C1610      C1611   1.409       .  A
C1610      C1615   1.452       .  S
C1611      C1612   1.414       .  A
C1611      C1618   1.451       .  S
C1612      C1613   1.414       .  A
C1613      C1614   1.416       .  A
C1613      C1616   1.451       .  S
C1614      C1617   1.450       .  S
C1615      N1622   1.157       .  T
C1616      N1621   1.157       .  T
C1617      N1619   1.157       .  T
C1618      N1620   1.157       .  T
C1623      C1624   1.412       .  A
C1623      C1628   1.413       .  A
C1624      C1625   1.411       .  A
C1624      C1629   1.450       .  S
C1625      C1626   1.413       .  A
C1625      C1632   1.451       .  S
C1626      C1627   1.414       .  A
C1627      C1628   1.414       .  A
C1627      C1630   1.449       .  S
C1628      C1631   1.451       .  S
C1629      N1636   1.157       .  T
C1630      N1635   1.156       .  T
C1631      N1633   1.157       .  T
C1632      N1634   1.157       .  T
C1637      C1638   1.411       .  A
C1637      C1642   1.410       .  A
C1638      C1639   1.413       .  A
C1638      C1643   1.451       .  S
C1639      C1640   1.413       .  A
C1639      C1646   1.450       .  S
C1640      C1641   1.412       .  A
C1641      C1642   1.411       .  A
C1641      C1644   1.450       .  S
C1642      C1645   1.451       .  S
C1643      N1650   1.157       .  T
C1644      N1649   1.157       .  T
C1645      N1647   1.157       .  T
C1646      N1648   1.157       .  T
C1651      C1652   1.414       .  A
C1651      C1656   1.413       .  A
C1652      C1653   1.415       .  A
C1652      C1657   1.451       .  S
C1653      C1654   1.415       .  A
C1653      C1660   1.451       .  S
C1654      C1655   1.412       .  A
C1655      C1656   1.410       .  A
C1655      C1658   1.450       .  S
C1656      C1659   1.449       .  S
C1657      N1664   1.157       .  T
C1658      N1663   1.157       .  T
C1659      N1661   1.156       .  T
C1660      N1662   1.157   1_655  T
C1665      C1666   1.416       .  A
C1665      C1670   1.414       .  A
C1666      C1667   1.413       .  A
C1666      C1671   1.451       .  S
C1667      C1668   1.411       .  A
C1667      C1674   1.451       .  S
C1668      C1669   1.410       .  A
C1669      C1670   1.406       .  A
C1669      C1672   1.450       .  S
C1670      C1673   1.452       .  S
C1671      N1678   1.157   1_565  T
C1672      N1677   1.156       .  T
C1673      N1675   1.157       .  T
C1674      N1676   1.157       .  T
C1679      C1680   1.416       .  A
C1679      C1684   1.411       .  A
C1680      C1681   1.417       .  A
C1680      C1685   1.451       .  S
C1681      C1682   1.416       .  A
C1681      C1688   1.449       .  S
C1682      C1683   1.420       .  A
C1683      C1684   1.414       .  A
C1683      C1686   1.448       .  S
C1684      C1687   1.452       .  S
C1685      N1692   1.157       .  T
C1686      N1691   1.156       .  T
C1687      N1689   1.157       .  T
C1688      N1690   1.157       .  T
C1693      C1694   1.431       .  A
C1693      C1698   1.418       .  A
C1694      C1695   1.415       .  A
C1694      C1699   1.450       .  S
C1695      C1696   1.406       .  A
C1695      C1702   1.454       .  S
C1696      C1697   1.418       .  A
C1697      C1698   1.414       .  A
C1697      C1700   1.452       .  S
C1698      C1701   1.452       .  S
C1699      N1706   1.157       .  T
C1700      N1705   1.157       .  T
C1701      N1703   1.157       .  T
C1702      N1704   1.157       .  T
C1707      C1708   1.421       .  A
C1707      C1712   1.419       .  A
C1708      C1709   1.413       .  A
C1708      C1713   1.451   1_565  S
C1709      C1710   1.413       .  A
C1709      C1716   1.451       .  S
C1710      C1711   1.415       .  A
C1711      C1712   1.413       .  A
C1711      C1714   1.453       .  S
C1712      C1715   1.451       .  S
C1713      N1720   1.157       .  T
C1714      N1719   1.157       .  T
C1715      N1717   1.157       .  T
C1716      N1718   1.157   1_455  T
C1721      C1722   1.417       .  A
C1721      C1726   1.413       .  A
C1722      C1723   1.417       .  A
C1722      C1727   1.450       .  S
C1723      C1724   1.412       .  A
C1723      C1730   1.451       .  S
C1724      C1725   1.414       .  A
C1725      C1726   1.410       .  A
C1725      C1728   1.453       .  S
C1726      C1729   1.451       .  S
C1727      N1734   1.157       .  T
C1728      N1733   1.157       .  T
C1729      N1731   1.157       .  T
C1730      N1732   1.157       .  T
C1735      C1736   1.417       .  A
C1735      C1740   1.416       .  A
C1736      C1737   1.415       .  A
C1736      C1741   1.450       .  S
C1737      C1738   1.411       .  A
C1737      C1744   1.450       .  S
C1738      C1739   1.412       .  A
C1739      C1740   1.411       .  A
C1739      C1742   1.450       .  S
C1740      C1743   1.451       .  S
C1741      N1748   1.157       .  T
C1742      N1747   1.156       .  T
C1743      N1745   1.157       .  T
C1744      N1746   1.157       .  T
C1749      C1750   1.418       .  A
C1749      C1754   1.422       .  A
C1750      C1751   1.412       .  A
C1750      C1755   1.453       .  S
C1751      C1752   1.418       .  A
C1751      C1758   1.452       .  S
C1752      C1753   1.419       .  A
C1753      C1754   1.417       .  A
C1753      C1756   1.451   1_655  S
C1754      C1757   1.452       .  S
C1755      N1762   1.157       .  T
C1756      N1761   1.158       .  T
C1757      N1759   1.158       .  T
C1758      N1760   1.157       .  T
C1763      C1764   1.415       .  A
C1763      C1768   1.415       .  A
C1764      C1765   1.414       .  A
C1764      C1769   1.452       .  S
C1765      C1766   1.415       .  A
C1765      C1772   1.451       .  S
C1766      C1767   1.415       .  A
C1767      C1768   1.415       .  A
C1767      C1770   1.451       .  S
C1768      C1771   1.451       .  S
C1769      N1776   1.157       .  T
C1770      N1775   1.157   1_565  T
C1771      N1773   1.157   1_565  T
C1772      N1774   1.157       .  T
C1777      C1778   1.413       .  A
C1777      C1782   1.412       .  A
C1778      C1779   1.411   1_545  A
C1778      C1783   1.449   1_545  S
C1779      C1780   1.412       .  A
C1779      C1786   1.451       .  S
C1780      C1781   1.415   1_565  A
C1781      C1782   1.416       .  A
C1781      C1784   1.449       .  S
C1782      C1785   1.451       .  S
C1783      N1790   1.156       .  T
C1784      N1789   1.157       .  T
C1785      N1787   1.157       .  T
C1786      N1788   1.157       .  T
C1791      C1792   1.420       .  A
C1791      C1796   1.430       .  A
C1792      C1793   1.417       .  A
C1792      C1797   1.451       .  S
C1793      C1794   1.418       .  A
C1793      C1800   1.452       .  S
C1794      C1795   1.408       .  A
C1795      C1796   1.413       .  A
C1795      C1798   1.454       .  S
C1796      C1799   1.449       .  S
C1797      N1804   1.157       .  T
C1798      N1803   1.157       .  T
C1799      N1801   1.157       .  T
C1800      N1802   1.157       .  T
C1805      C1806   1.414       .  A
C1805      C1810   1.410       .  A
C1806      C1807   1.414       .  A
C1806      C1811   1.450       .  S
C1807      C1808   1.415       .  A
C1807      C1814   1.451       .  S
C1808      C1809   1.412       .  A
C1809      C1810   1.406       .  A
C1809      C1812   1.448       .  S
C1810      C1813   1.450       .  S
C1811      N1818   1.157       .  T
C1812      N1817   1.157       .  T
C1813      N1815   1.157   1_545  T
C1814      N1816   1.157       .  T
C1819      C1820   1.416       .  A
C1819      C1824   1.414       .  A
C1820      C1821   1.422       .  A
C1820      C1825   1.449       .  S
C1821      C1822   1.417       .  A
C1821      C1828   1.450       .  S
C1822      C1823   1.415       .  A
C1823      C1824   1.411       .  A
C1823      C1826   1.452       .  S
C1824      C1827   1.451       .  S
C1825      N1832   1.157       .  T
C1826      N1831   1.157       .  T
C1827      N1829   1.156       .  T
C1828      N1830   1.157       .  T
C1833      C1834   1.417       .  A
C1833      C1838   1.416       .  A
C1834      C1835   1.408       .  A
C1834      C1839   1.450       .  S
C1835      C1836   1.412       .  A
C1835      C1842   1.454       .  S
C1836      C1837   1.414       .  A
C1837      C1838   1.415       .  A
C1837      C1840   1.451       .  S
C1838      C1841   1.450       .  S
C1839      N1846   1.157       .  T
C1840      N1845   1.157       .  T
C1841      N1843   1.157       .  T
C1842      N1844   1.157       .  T
C1847      C1848   1.413       .  A
C1847      C1852   1.411       .  A
C1848      C1849   1.412       .  A
C1848      C1853   1.451       .  S
C1849      C1850   1.411       .  A
C1849      C1856   1.451       .  S
C1850      C1851   1.412       .  A
C1851      C1852   1.411       .  A
C1851      C1854   1.451   1_655  S
C1852      C1855   1.452       .  S
C1853      N1860   1.157       .  T
C1854      N1859   1.157       .  T
C1855      N1857   1.157   1_545  T
C1856      N1858   1.157       .  T
C1861      C1862   1.410       .  A
C1861      C1866   1.410       .  A
C1862      C1863   1.412       .  A
C1862      C1867   1.451       .  S
C1863      C1864   1.415       .  A
C1863      C1870   1.450       .  S
C1864      C1865   1.411       .  A
C1865      C1866   1.406       .  A
C1865      C1868   1.451       .  S
C1866      C1869   1.449       .  S
C1867      N1874   1.157       .  T
C1868      N1873   1.157       .  T
C1869      N1871   1.156       .  T
C1870      N1872   1.157       .  T
C1875      C1876   1.414       .  A
C1875      C1880   1.417       .  A
C1876      C1877   1.419       .  A
C1876      C1881   1.450       .  S
C1877      C1878   1.419       .  A
C1877      C1884   1.450       .  S
C1878      C1879   1.413       .  A
C1879      C1880   1.411       .  A
C1879      C1882   1.452       .  S
C1880      C1883   1.451       .  S
C1881      N1888   1.157       .  T
C1882      N1887   1.157       .  T
C1883      N1885   1.157       .  T
C1884      N1886   1.157       .  T
C1889      C1890   1.409       .  A
C1889      C1894   1.413       .  A
C1890      C1891   1.406       .  A
C1890      C1895   1.449   1_565  S
C1891      C1892   1.410       .  A
C1891      C1898   1.450       .  S
C1892      C1893   1.414       .  A
C1893      C1894   1.412       .  A
C1893      C1896   1.451       .  S
C1894      C1897   1.451       .  S
C1895      N1902   1.156       .  T
C1896      N1901   1.157       .  T
C1897      N1899   1.157       .  T
C1898      N1900   1.157       .  T
C1903      C1904   1.414       .  A
C1903      C1908   1.413       .  A
C1904      C1905   1.414       .  A
C1904      C1909   1.450       .  S
C1905      C1906   1.416       .  A
C1905      C1912   1.451       .  S
C1906      C1907   1.415       .  A
C1907      C1908   1.413       .  A
C1907      C1910   1.450       .  S
C1908      C1911   1.452       .  S
C1909      N1916   1.157       .  T
C1910      N1915   1.157       .  T
C1911      N1913   1.157       .  T
C1912      N1914   1.157       .  T
C1917      C1918   1.413       .  A
C1917      C1922   1.412       .  A
C1918      C1919   1.417       .  A
C1918      C1923   1.451       .  S
C1919      C1920   1.417       .  A
C1919      C1926   1.449       .  S
C1920      C1921   1.414       .  A
C1921      C1922   1.408       .  A
C1921      C1924   1.451       .  S
C1922      C1925   1.453       .  S
C1923      N1930   1.158       .  T
C1924      N1929   1.157       .  T
C1925      N1927   1.157       .  T
C1926      N1928   1.157       .  T
C1931      C1932   1.419       .  A
C1931      C1936   1.422       .  A
C1932      C1933   1.418       .  A
C1932      C1937   1.449       .  S
C1933      C1934   1.418   1_455  A
C1933      C1940   1.451       .  S
C1934      C1935   1.415       .  A
C1935      C1936   1.414   1_655  A
C1935      C1938   1.450       .  S
C1936      C1939   1.451       .  S
C1937      N1944   1.157       .  T
C1938      N1943   1.157       .  T
C1939      N1941   1.157       .  T
C1940      N1942   1.157       .  T
