geometry optimzed in LAMMPS
_audit_creation_date              2020-11-30 
_audit_creation_method            'lammps2cif' 
_symmetry_space_group_name_H-M    'P1' 
_symmetry_Int_Tables_number       1 
_symmetry_cell_setting            triclinic 
loop_ 
_symmetry_equiv_pos_as_xyz 
  x,y,z 
_cell_length_a                    44.76988549016083 
_cell_length_b                    44.4696066329153 
_cell_length_c                    36.03403900574301 
_cell_angle_alpha                 90.9530834342943 
_cell_angle_beta                  89.88586931689507 
_cell_angle_gamma                 123.46072095777458 
loop_ 
_atom_site_label 
_atom_site_type_symbol 
_atom_site_fract_x 
_atom_site_fract_y 
_atom_site_fract_z 
_atom_site_charge 
O1          O  0.56503919  0.54484634  0.24943295    -0.81070
O2          O  0.70062014  0.55747465  0.26180795    -0.65760
O3          O  0.60288690  0.51983052  0.27184157    -1.12360
C4          C  0.65237330  0.60730743  0.36657212     1.05820
O5          O  0.69711619  0.53562811  0.31805377    -0.78970
O6          O  0.63919160  0.51763249  0.36853058    -0.66550
Ni7        Ni  0.57506927  0.51248518  0.22871092     1.34870
C8          C  0.60615218  0.50722912  0.36976256     0.84550
O9          O  0.64438661  0.50867931  0.22124125    -0.79510
O10         O  0.58542977  0.47955777  0.20945838    -0.89780
C11         C  0.71104075  0.54407113  0.28526194     0.84130
O12         O  0.60984967  0.54956461  0.19757869    -0.67990
O13         O  0.67027606  0.59338889  0.37488616    -0.87270
C14         C  0.63828756  0.57861813  0.20761194     0.84960
C15         C  0.61539226  0.48271878  0.20678766     1.06520
H16         H  0.67437775  0.59274791  0.29890678     0.38330
O17         O  0.65901910  0.56771294  0.30560390    -1.09930
O18         O  0.59456045  0.52149185  0.34874449    -0.66580
Ni19       Ni  0.61217462  0.55629370  0.30882844     1.26350
O20         O  0.65814784  0.57927349  0.23365399    -0.66810
O21         O  0.62664681  0.59354541  0.34322864    -0.79100
C22         C  0.54854659  0.53116761  0.27903866     0.84340
O23         O  0.56483372  0.54644029  0.30877511    -0.66280
Ni24       Ni  0.68068030  0.56200368  0.34716063     1.27450
Ni25       Ni  0.65175864  0.53914990  0.26362276     1.26060
H26         H  0.59265386  0.49687650  0.28375021     0.38880
O27         O  0.58450805  0.58944114  0.06465955    -0.81070
O28         O  0.56117846  0.69977356  0.07612978    -0.65760
O29         O  0.54318108  0.61035867  0.04552109    -1.12360
C30         C  0.62568955  0.67896485  0.45631081     1.05820
O31         O  0.54392352  0.70352222  0.01921033    -0.78970
O32         O  0.52929899  0.64864125  0.46672464    -0.66550
Ni33       Ni  0.53974715  0.57916022  0.08183578     1.34870
C34         C  0.52662325  0.61927156  0.45760634     0.84550
O35         O  0.51750794  0.63265571  0.10239981    -0.79510
O36         O  0.49630302  0.57337244  0.09728665    -0.89780
C37         C  0.55042749  0.71372547  0.05362747     0.84130
O38         O  0.56258577  0.61067131  0.12309411    -0.67990
O39         O  0.60419665  0.68940554  0.45172858    -0.87270
C40         C  0.59079419  0.64138410  0.12041606     0.84960
C41         C  0.49345175  0.59937410  0.10774748     1.06520
H42         H  0.60823394  0.69240315  0.03314557     0.38330
O43         O  0.58463616  0.67403490  0.02391152    -1.09930
O44         O  0.54961059  0.61328828  0.46989852    -0.66580
Ni45       Ni  0.58303775  0.63188613  0.01240623     1.26350
O46         O  0.59273463  0.66311806  0.09602391    -0.66810
O47         O  0.62191578  0.65735728  0.48132948    -0.79100
C48         C  0.57874877  0.57234501  0.03458595     0.84340
O49         O  0.58344851  0.58933510  0.00513745    -0.66280
Ni50       Ni  0.57231507  0.69366598  0.48557153     1.27450
Ni51       Ni  0.55242207  0.65436229  0.06357281     1.26060
H52         H  0.52097705  0.59819512  0.03158166     0.38880
O53         O  0.01497245  0.56866410  0.44928754    -0.81070
O54         O  0.16385089  0.65846343  0.46192062    -0.65760
O55         O  0.09005044  0.60888509  0.46416503    -1.12360
C56         C  0.07483261  0.66517063  0.06002716     1.05820
O57         O  0.18719582  0.70633527  0.49896746    -0.78970
O58         O  0.14659739  0.64670724  0.04240127    -0.66550
Ni59       Ni  0.05730278  0.57119629  0.43145924     1.34870
C60         C  0.11819615  0.61658306  0.04994674     0.84550
O61         O  0.12924103  0.63248295  0.39796539    -0.79510
O62         O  0.09866140  0.57404360  0.41237688    -0.89780
C63         C  0.18969554  0.69009704  0.47095224     0.84130
O64         O  0.05797219  0.59858522  0.39091288    -0.67990
O65         O  0.10763509  0.67610820  0.06611647    -0.87270
C66         C  0.05829873  0.62696917  0.39539763     0.84960
C67         C  0.12557779  0.60184862  0.39769353     1.06520
H68         H  0.11024496  0.68983852  0.48166970     0.38330
O69         O  0.11546116  0.67206407  0.48758363    -1.09930
O70         O  0.08811217  0.61040909  0.03912675    -0.66580
Ni71       Ni  0.07329265  0.62875427  0.49821122     1.26350
O72         O  0.08074449  0.65165340  0.41828802    -0.66810
O73         O  0.05989585  0.65293685  0.02909650    -0.79100
C74         C  0.00606147  0.56974768  0.48271334     0.84340
O75         O  0.02939249  0.58649153  0.50748422    -0.66280
Ni76       Ni  0.14690185  0.68962411  0.03091471     1.27450
Ni77       Ni  0.12226537  0.65380073  0.44127804     1.26060
H78         H  0.10353895  0.60105042  0.47679663     0.38880
O79         O  0.99084929  0.55919749  0.25284124    -0.81070
O80         O  0.84922923  0.53506805  0.25693061    -0.65760
O81         O  0.92021101  0.51949365  0.22832390    -1.12360
C82         C  0.94872596  0.59914701  0.13934227     1.05820
O83         O  0.83034609  0.52887623  0.19757228    -0.78970
O84         O  0.86672824  0.50541764  0.15200150    -0.66550
Ni85       Ni  0.94701699  0.51371217  0.26359655     1.34870
C86         C  0.89308058  0.50271444  0.14416845     0.84550
O87         O  0.86719658  0.48967161  0.28149486    -0.79510
O88         O  0.90336531  0.46940886  0.27473134    -0.89780
C89         C  0.82640408  0.53131726  0.23297143     0.84130
O90         O  0.94010192  0.53579047  0.30541531    -0.67990
O91         O  0.91508186  0.57751461  0.13158109    -0.87270
C92         C  0.94020049  0.56410498  0.30340084     0.84960
C93         C  0.87373265  0.46516905  0.28441216     1.06520
H94         H  0.90909371  0.58462995  0.21821508     0.38330
O95         O  0.90214523  0.56146000  0.20775017    -1.09930
O96         O  0.92457551  0.52736495  0.15550310    -0.66580
Ni97       Ni  0.94229323  0.56058178  0.19890665     1.26350
O98         O  0.91969761  0.56584393  0.27990904    -0.66810
O99         O  0.96104684  0.60179123  0.17128364    -0.79100
C100        C  0.00435833  0.56827973  0.22055581     0.84340
O101        O  0.98471371  0.56244434  0.19279979    -0.66280
Ni102      Ni  0.87309369  0.55157686  0.16537860     1.27450
Ni103      Ni  0.88509845  0.52683182  0.24508497     1.26060
H104        H  0.90843288  0.49779482  0.21315429     0.38880
O105        O  0.55596512  0.99936160  0.36815072    -0.81070
O106        O  0.67862624  0.14409897  0.40340519    -0.65760
O107        O  0.59116803  0.07304439  0.35932285    -1.12360
C108        C  0.66737692  0.06546845  0.27910182     1.05820
O109        O  0.69287454  0.17203336  0.34903941    -0.78970
O110        O  0.64668272  0.13742705  0.28726205    -0.66550
Ni111      Ni  0.55313851  0.03867489  0.38799758     1.34870
C112        C  0.61537678  0.11167995  0.27643864     0.84550
O113        O  0.61013008  0.11759998  0.42141378    -0.79510
O114        O  0.55148104  0.07797496  0.40890593    -0.89780
C115        C  0.69919058  0.17159395  0.38388994     0.84130
O116        O  0.57725680  0.03840613  0.43128773    -0.67990
O117        O  0.68340662  0.09997631  0.27666958    -0.87270
C118        C  0.60882255  0.04600150  0.43422139     0.84960
C119        C  0.57744170  0.10760237  0.42344506     1.06520
H120        H  0.67016933  0.08994150  0.35592070     0.38330
O121        O  0.65594512  0.09802161  0.34546373    -1.09930
O122        O  0.60312527  0.07953055  0.28574437    -0.66580
Ni123      Ni  0.61345304  0.05827353  0.32630934     1.26350
O124        O  0.63448403  0.07144415  0.41529189    -0.66810
O125        O  0.63840106  0.04587440  0.29628744    -0.79100
C126        C  0.55649231  0.99163483  0.33388702     0.84340
O127        O  0.57156094  0.01624935  0.31058064    -0.66280
Ni128      Ni  0.68498945  0.13532244  0.31210542     1.27450
Ni129      Ni  0.63376354  0.10748784  0.38401123     1.26060
H130        H  0.58280958  0.08576090  0.34602130     0.38880
O131        O  0.56042560  0.99197109  0.10440676    -0.81070
O132        O  0.54359919  0.85419970  0.08659191    -0.65760
O133        O  0.52467880  0.92138340  0.12349296    -1.12360
C134        C  0.61907634  0.95337912  0.20211312     1.05820
O135        O  0.53774547  0.83451897  0.14466803    -0.78970
O136        O  0.52360379  0.86959236  0.19998368    -0.66550
Ni137      Ni  0.51558334  0.94809275  0.09189420     1.34870
C138        C  0.51613724  0.89287212  0.20784113     0.84550
O139        O  0.49415150  0.86911758  0.06810797    -0.79510
O140        O  0.47225299  0.90371923  0.07862805    -0.89780
C141        C  0.54034422  0.83094460  0.10942913     0.84130
O142        O  0.53654582  0.94535237  0.04721173    -0.67990
O143        O  0.60107134  0.91927144  0.20861333    -0.87270
C144        C  0.56406790  0.94434883  0.04467058     0.84960
C145        C  0.46907531  0.87485296  0.06633539     1.06520
H146        H  0.59366002  0.91739774  0.12611288     0.37610
O147        O  0.57093016  0.90774151  0.13828211    -1.09930
O148        O  0.53642563  0.92510117  0.19670449    -0.66580
Ni149      Ni  0.56645579  0.94562391  0.15293306     1.26350
O150        O  0.56850735  0.92423011  0.06610240    -0.66810
O151        O  0.60842625  0.96723609  0.17988585    -0.79100
C152        C  0.56722729  0.00504568  0.13724141     0.84340
O153        O  0.56417013  0.98566284  0.16391530    -0.66280
Ni154      Ni  0.56709315  0.87725507  0.17663253     1.27450
Ni155      Ni  0.53382199  0.88866756  0.10239845     1.26060
H156        H  0.50391807  0.90764964  0.13873310     0.38880
O157        O  0.46599948  0.01903336  0.07453847    -0.81070
O158        O  0.45058892  0.14201636  0.08085526    -0.65760
O159        O  0.48580101  0.08407012  0.09771470    -1.12360
C160        C  0.40661358  0.04163681  0.19324115     1.05820
O161        O  0.46612009  0.16243024  0.13973807    -0.78970
O162        O  0.49400886  0.12899798  0.18210530    -0.66550
Ni163      Ni  0.49884005  0.06567520  0.05782160     1.34870
C164        C  0.50129190  0.10514670  0.18643761     0.84550
O165        O  0.49855788  0.13573274  0.04365725    -0.79510
O166        O  0.53243259  0.11308355  0.04215229    -0.89780
C167        C  0.45904096  0.16609653  0.10588203     0.84130
O168        O  0.46409720  0.05993790  0.02265194    -0.67990
O169        O  0.42382741  0.07559374  0.20140753    -0.87270
C170        C  0.43393809  0.05504874  0.02942561     0.84960
C171        C  0.52517988  0.13548702  0.03162313     1.06520
H172        H  0.41368186  0.08021023  0.11931298     0.38330
O173        O  0.43824513  0.09056075  0.12691037    -1.09930
O174        O  0.48080185  0.07349949  0.17216197    -0.66580
Ni175      Ni  0.44607361  0.05391637  0.13041958     1.26350
O176        O  0.43026804  0.07358837  0.05458228    -0.66810
O177        O  0.40708981  0.02932161  0.16159411    -0.79100
C178        C  0.47184698  0.01542186  0.10777987     0.84340
O179        O  0.45059081  0.01380550  0.13139927    -0.66280
Ni180      Ni  0.44650207  0.11869156  0.16995683     1.27450
Ni181      Ni  0.46829958  0.11276503  0.08606014     1.26060
H182        H  0.50739067  0.09908972  0.11221454     0.38880
O183        O  0.45633524  0.96997495  0.39516367    -0.81070
O184        O  0.30637189  0.83358863  0.40509528    -0.65760
O185        O  0.40300512  0.90107641  0.38402510    -1.12360
C186        C  0.35372747  0.92316806  0.28510803     1.05820
O187        O  0.30296832  0.80792763  0.34995907    -0.78970
O188        O  0.36412677  0.84659618  0.30364829    -0.66550
Ni189      Ni  0.43846455  0.92777725  0.42199056     1.34870
C190        C  0.39511204  0.87405075  0.29591052     0.84550
O191        O  0.36427961  0.84995472  0.44079886    -0.79510
O192        O  0.42328934  0.88612780  0.44995282    -0.89780
C193        C  0.29365855  0.80569199  0.38433399     0.84130
O194        O  0.41029703  0.93978847  0.44991979    -0.67990
O195        O  0.33815846  0.88875202  0.28039378    -0.87270
C196        C  0.37856683  0.93221475  0.44688869     0.84960
C197        C  0.39297080  0.85791455  0.45647771     1.06520
H198        H  0.32747788  0.89060803  0.36178012     0.38330
O199        O  0.34346988  0.88315023  0.35535839    -1.09930
O200        O  0.40416844  0.90525208  0.30725957    -0.66580
Ni201      Ni  0.38898946  0.92356666  0.34790681     1.26350
O202        O  0.35381709  0.90523762  0.42743554    -0.66810
O203        O  0.37031900  0.94031099  0.31441334    -0.79100
C204        C  0.45785931  0.96663896  0.36065409     0.84340
O205        O  0.43464693  0.96678324  0.34185723    -0.66280
Ni206      Ni  0.32262200  0.84913926  0.31571281     1.27450
Ni207      Ni  0.35487229  0.86793942  0.39787195     1.26060
H208        H  0.41028665  0.88701793  0.37099377     0.38880
O209        O  0.42628084  0.43387035  0.24909711    -0.81070
O210        O  0.31381990  0.45871094  0.25636764    -0.65760
O211        O  0.40499956  0.47783966  0.27460569    -1.12360
C212        C  0.35510295  0.40853322  0.37433264     1.05820
O213        O  0.31353325  0.47771568  0.31458815    -0.78970
O214        O  0.37781942  0.50080180  0.35614692    -0.66550
Ni215      Ni  0.43210996  0.47834187  0.23490216     1.34870
C216        C  0.40720308  0.50301233  0.36215783     0.84550
O217        O  0.37639888  0.49897017  0.22044283    -0.79510
O218        O  0.43546395  0.52099935  0.22032432    -0.89780
C219        C  0.30128939  0.46982624  0.28081602     0.84130
O220        O  0.39532521  0.45240363  0.19868020    -0.67990
O221        O  0.34524768  0.43039466  0.38092783    -0.87270
C222        C  0.36630192  0.42378299  0.20670220     0.84960
C223        C  0.40868935  0.52261329  0.21147045     1.06520
H224        H  0.32517943  0.41538412  0.29879108     0.38330
O225        O  0.34476981  0.43964778  0.30514829    -1.09930
O226        O  0.41103920  0.47827354  0.34923458    -0.66580
Ni227      Ni  0.38668304  0.44092423  0.30946721     1.26350
O228        O  0.34740337  0.42430539  0.23321479    -0.66810
O229        O  0.36452454  0.40407613  0.34287171    -0.79100
C230        C  0.43653432  0.42987901  0.28039530     0.84340
O231        O  0.42731806  0.43841711  0.30992890    -0.66280
Ni232      Ni  0.33147712  0.45538210  0.34702369     1.27450
Ni233      Ni  0.35974119  0.46809234  0.26275069     1.26060
H234        H  0.41866800  0.50112304  0.28698329     0.38880
O235        O  0.43952471  0.42628263  0.07960190    -0.81070
O236        O  0.45583447  0.30787923  0.08171366    -0.65760
O237        O  0.47609785  0.39922657  0.05865323    -1.12360
C238        C  0.39992570  0.34067047  0.46195805     1.05820
O239        O  0.47168637  0.30356513  0.02372681    -0.78970
O240        O  0.49295762  0.36494846  0.47901205    -0.66550
Ni241      Ni  0.48119104  0.43041489  0.09779934     1.34870
C242        C  0.49495649  0.39397778  0.47090562     0.84550
O243        O  0.49998775  0.37326299  0.11360974    -0.79510
O244        O  0.52287233  0.43271376  0.11328912    -0.89780
C245        C  0.46425360  0.29262083  0.05753143     0.84130
O246        O  0.45403821  0.39617147  0.13513543    -0.67990
O247        O  0.42170387  0.33072332  0.45646445    -0.87270
C248        C  0.42538492  0.36628242  0.12812432     0.84960
C249        C  0.52554677  0.40608029  0.11939331     1.06520
H250        H  0.41112278  0.31732544  0.03931551     0.38330
O251        O  0.43486570  0.33634433  0.03173826    -1.09930
O252        O  0.47093362  0.39889819  0.48313604    -0.66580
Ni253      Ni  0.43612792  0.37836729  0.02455355     1.26350
O254        O  0.42496169  0.34508026  0.10326993    -0.66810
O255        O  0.39715807  0.35319577  0.49250198    -0.79100
C256        C  0.44612234  0.44082492  0.04834760     0.84340
O257        O  0.43462104  0.42028691  0.02021200    -0.66280
Ni258      Ni  0.44800906  0.31932873  0.49075209     1.27450
Ni259      Ni  0.46611577  0.35414469  0.07285107     1.26060
H260        H  0.49830960  0.41138766  0.04513565     0.38880
O261        O  0.03153624  0.47139355  0.25975120    -0.81070
O262        O  0.15637425  0.46527161  0.25672080    -0.65760
O263        O  0.09631064  0.49703523  0.23601643    -1.12360
C264        C  0.05320859  0.40595603  0.14720870     1.05820
O265        O  0.17538714  0.47959002  0.19830121    -0.78970
O266        O  0.13766546  0.49898640  0.15006708    -0.66550
Ni267      Ni  0.07706505  0.50884171  0.27607811     1.34870
C268        C  0.11277105  0.50439676  0.14408202     0.84550
O269        O  0.15065484  0.51632384  0.28928981    -0.79510
O270        O  0.12368031  0.54641153  0.29069039    -0.89780
C271        C  0.17977590  0.47301969  0.23200820     0.84130
O272        O  0.07610687  0.47842217  0.31339376    -0.67990
O273        O  0.08679088  0.42362038  0.13892537    -0.87270
C274        C  0.07124889  0.44800269  0.30723203     0.84960
C275        C  0.14961361  0.54350133  0.29884885     1.06520
H276        H  0.09281618  0.42374369  0.21903194     0.38330
O277        O  0.10278228  0.44786141  0.21015896    -1.09930
O278        O  0.08289938  0.48547138  0.16048634    -0.66580
Ni279      Ni  0.06590669  0.45535115  0.20423733     1.26350
O280        O  0.08908292  0.44400481  0.28204793    -0.66810
O281        O  0.04075294  0.41431966  0.17424356    -0.79100
C282        C  0.02646400  0.47932901  0.22811075     0.84340
O283        O  0.02716266  0.46170205  0.20102915    -0.66280
Ni284      Ni  0.13073571  0.45391239  0.16850541     1.27450
Ni285      Ni  0.12605056  0.48131953  0.24935526     1.26060
H286        H  0.11005552  0.51825113  0.22109427     0.38880
O287        O  0.98142379  0.45455327  0.44246372    -0.81070
O288        O  0.85427070  0.30572662  0.43100706    -0.65760
O289        O  0.91489526  0.40383429  0.45617776    -1.12360
C290        C  0.94655204  0.35452911  0.04857749     1.05820
O291        O  0.83022446  0.30082606  0.48690423    -0.78970
O292        O  0.86554965  0.35866180  0.04046986    -0.66550
Ni293      Ni  0.93811604  0.43859864  0.41852258     1.34870
C294        C  0.89058521  0.39146409  0.04789272     0.84550
O295        O  0.86459163  0.36310958  0.39840120    -0.79510
O296        O  0.89386862  0.42310255  0.39542400    -0.89780
C297        C  0.82782393  0.28999787  0.45290622     0.84130
O298        O  0.94745666  0.41180199  0.38431084    -0.67990
O299        O  0.91240117  0.33534560  0.05365574    -0.87270
C300        C  0.94677745  0.38327833  0.38886200     0.84960
C301        C  0.86754877  0.39150204  0.38725151     1.06520
H302        H  0.91460133  0.33300544  0.47424545     0.38330
O303        O  0.90435653  0.34636110  0.48195234    -1.09930
O304        O  0.92098021  0.40538420  0.03287228    -0.66580
Ni305      Ni  0.94127732  0.39422326  0.49168722     1.26350
O306        O  0.92422258  0.35822440  0.41054846    -0.66810
O307        O  0.96216665  0.37914069  0.02458784    -0.79100
C308        C  0.98094838  0.46327465  0.47574245     0.84340
O309        O  0.98011823  0.44299188  0.49986934    -0.66280
Ni310      Ni  0.87183168  0.32076534  0.02048024     1.27450
Ni311      Ni  0.88546885  0.35521247  0.44038985     1.26060
H312        H  0.89991565  0.40963083  0.46954657     0.38880
C313        C  0.03337837  0.37696595  0.08524607    -0.21490
C314        C  0.02618396  0.37679145  0.12295388    -0.09530
C315        C  0.99037218  0.35517965  0.13524427     0.29330
C316        C  0.96245925  0.34274930  0.10981834    -0.21490
C317        C  0.97050401  0.35058013  0.07240654    -0.09540
C318        C  0.00535745  0.36325633  0.05980870     0.29340
F319        F  0.01309101  0.36733702  0.02303871    -0.20060
H320        H  0.06063686  0.39180810  0.07521892     0.17700
H321        H  0.93550127  0.33133632  0.11984773     0.17710
F322        F  0.98252504  0.35092251  0.17198836    -0.20050
C323        C  0.00973578  0.40039182  0.38742503    -0.21490
C324        C  0.97608942  0.38282472  0.36945421    -0.09530
C325        C  0.97543553  0.37954488  0.33045935     0.29330
C326        C  0.00756318  0.39608722  0.31010023    -0.21490
C327        C  0.04117091  0.41728351  0.32797508    -0.09540
C328        C  0.04183238  0.41783337  0.36706122     0.29340
F329        F  0.07344566  0.43883248  0.38550719    -0.20060
H330        H  0.01133404  0.40462229  0.41725127     0.17700
H331        H  0.00600687  0.39610592  0.28009832     0.17710
F332        F  0.94386498  0.36432213  0.31180446    -0.20050
C333        C  0.26540029  0.47426119  0.23049254    -0.21490
C334        C  0.27230936  0.47440123  0.26871867    -0.09530
C335        C  0.24994768  0.47664376  0.29440904     0.29330
C336        C  0.22069263  0.47724899  0.28204119    -0.21490
C337        C  0.21302047  0.47579559  0.24384460    -0.09540
C338        C  0.23621388  0.47503459  0.21811942     0.29340
F339        F  0.22999439  0.47354426  0.18107429    -0.20060
H340        H  0.28227253  0.47283429  0.20992018     0.17700
H341        H  0.20355097  0.47817225  0.30264274     0.17710
F342        F  0.25529553  0.47670149  0.33148020    -0.20050
C343        C  0.41058589  0.38256565  0.41643905    -0.21490
C344        C  0.38544245  0.34925337  0.43149290    -0.09530
C345        C  0.34895323  0.33692056  0.43131826     0.29330
C346        C  0.33805082  0.35801101  0.41571897    -0.21490
C347        C  0.36388097  0.39250316  0.40315012    -0.09540
C348        C  0.40030711  0.40494854  0.40480729     0.29340
F349        F  0.42590660  0.43807447  0.39236039    -0.20060
H350        H  0.43894591  0.39318317  0.41776746     0.17700
H351        H  0.30979974  0.34738435  0.41289199     0.17710
F352        F  0.32443511  0.30543078  0.44764632    -0.20050
C353        C  0.37406222  0.37337747  0.12818127    -0.21490
C354        C  0.39256822  0.36052285  0.14650297    -0.09530
C355        C  0.38912742  0.35741455  0.18536395     0.29330
C356        C  0.37147625  0.37083059  0.20528349    -0.21490
C357        C  0.35965228  0.39046972  0.18735229    -0.09540
C358        C  0.35875991  0.38911757  0.14823393     0.29340
F359        F  0.34779041  0.40762251  0.12944673    -0.20060
H360        H  0.37589044  0.37604752  0.09832091     0.17700
H361        H  0.37217080  0.37076348  0.23530760     0.17710
F362        F  0.40665853  0.34554217  0.20449613    -0.20050
C363        C  0.46128036  0.20573465  0.05600885    -0.21490
C364        C  0.46257237  0.19982541  0.09414114    -0.09530
C365        C  0.46668591  0.22599701  0.11989844     0.29330
C366        C  0.46823720  0.25655540  0.10766276    -0.21490
C367        C  0.46605088  0.26190796  0.06957408    -0.09540
C368        C  0.46306325  0.23632745  0.04380429     0.29340
F369        F  0.46033792  0.23996402  0.00686029    -0.20060
H370        H  0.45844018  0.18635932  0.03531121     0.17700
H371        H  0.47070409  0.27589445  0.12819040     0.17710
F372        F  0.46830855  0.22178152  0.15689880    -0.20050
C373        C  0.41123153  0.99792752  0.22530802    -0.21490
C374        C  0.39227563  0.01425352  0.22132258    -0.09530
C375        C  0.35685781  0.99665714  0.23380250     0.29330
C376        C  0.34141488  0.96347327  0.25165891    -0.21490
C377        C  0.36055370  0.94697152  0.25469277    -0.09540
C378        C  0.39532969  0.96437709  0.24072952     0.29340
F379        F  0.41554231  0.95071593  0.24576551    -0.20060
H380        H  0.43822274  0.01065462  0.21474712     0.17700
H381        H  0.31530375  0.95135285  0.26422014     0.17710
F382        F  0.33751514  0.01135922  0.22865183    -0.20050
C383        C  0.38402123  0.99053522  0.02568199    -0.21490
C384        C  0.40321631  0.02433809  0.00849936    -0.09530
C385        C  0.40328794  0.02476705  0.46943642     0.29330
C386        C  0.38812412  0.99248256  0.44848607    -0.21490
C387        C  0.37339298  0.95904665  0.46587001    -0.09540
C388        C  0.36967798  0.95827035  0.50471168     0.29340
F389        F  0.35688290  0.92693676  0.02278051    -0.20060
H390        H  0.38450694  0.98929128  0.05566331     0.17700
H391        H  0.39248275  0.99421014  0.41878661     0.17710
F392        F  0.42241820  0.05665595  0.45167254    -0.20050
C393        C  0.47134280  0.86302140  0.26222490    -0.21490
C394        C  0.48233508  0.88306202  0.22913172    -0.09530
C395        C  0.46122722  0.89579671  0.21700208     0.29330
C396        C  0.43136325  0.88958606  0.23725229    -0.21490
C397        C  0.42158700  0.87171316  0.27133619    -0.09540
C398        C  0.44184902  0.85793722  0.28334548     0.29340
F399        F  0.43437471  0.84119130  0.31641051    -0.20060
H400        H  0.48671361  0.85288105  0.27282108     0.17700
H401        H  0.41620248  0.89979019  0.22646418     0.17710
F402        F  0.46978174  0.91521456  0.18561706    -0.20050
C403        C  0.43924883  0.83265826  0.51350890    -0.21490
C404        C  0.43635303  0.84916208  0.04556053    -0.09530
C405        C  0.40534159  0.84939818  0.05088045     0.29330
C406        C  0.38262179  0.84188530  0.52081002    -0.21490
C407        C  0.39196558  0.83551459  0.48590066    -0.09540
C408        C  0.41671221  0.82559286  0.48341308     0.29340
F409        F  0.42477186  0.81765803  0.44982727    -0.20060
H410        H  0.46228247  0.83100342  0.50935179     0.17700
H411        H  0.36270786  0.84847272  0.02322762     0.17710
F412        F  0.40042956  0.86266899  0.08285949    -0.20050
C413        C  0.57145183  0.05597811  0.11134016    -0.21490
C414        C  0.57105679  0.03951579  0.14425423    -0.09530
C415        C  0.54707712  0.03596599  0.17145583     0.29330
C416        C  0.51405822  0.02823819  0.15927765    -0.21490
C417        C  0.50831436  0.02975584  0.12103461    -0.09540
C418        C  0.53817425  0.04595226  0.09715940     0.29340
F419        F  0.53488577  0.04751138  0.05997533    -0.20060
H420        H  0.59297234  0.06419518  0.09181146     0.17700
H421        H  0.49260035  0.01856689  0.17915317     0.17710
F422        F  0.55061236  0.02862859  0.20699809    -0.20050
C423        C  0.78056900  0.26598378  0.40401042    -0.21490
C424        C  0.79328339  0.26071407  0.43728896    -0.09530
C425        C  0.77426374  0.22675753  0.45353544     0.29330
C426        C  0.74327970  0.19828883  0.43631139    -0.21490
C427        C  0.73068821  0.20315624  0.40255654    -0.09540
C428        C  0.74938949  0.23757909  0.38684249     0.29340
F429        F  0.73766917  0.24385114  0.35502553    -0.20060
H430        H  0.79501642  0.29216639  0.39117153     0.17700
H431        H  0.72973821  0.17203207  0.44891636     0.17710
F432        F  0.78678828  0.22059997  0.48482643    -0.20050
C433        C  0.67072359  0.01237878  0.28028971    -0.21490
C434        C  0.68033787  0.04443660  0.26185063    -0.09530
C435        C  0.68657287  0.04620822  0.22380723     0.29330
C436        C  0.67434145  0.01411965  0.20394481    -0.21490
C437        C  0.65254911  0.98054214  0.22172253    -0.09540
C438        C  0.65485121  0.97984547  0.26026308     0.29340
F439        F  0.63588567  0.94826119  0.27857272    -0.20060
H440        H  0.66771567  0.01103514  0.31019493     0.17700
H441        H  0.67482478  0.01518166  0.17390477     0.17710
F442        F  0.69759333  0.07688339  0.20519299    -0.20050
C443        C  0.58368058  0.95908644  0.47870242    -0.21490
C444        C  0.59060983  0.96918444  0.01641306    -0.09530
C445        C  0.61257407  0.00654342  0.02502781     0.29330
C446        C  0.62317223  0.03264079  0.99724146    -0.21490
C447        C  0.61305053  0.02227238  0.45994409    -0.09540
C448        C  0.59506967  0.98512385  0.45088555     0.29340
F449        F  0.58482302  0.97358638  0.41531346    -0.20060
H450        H  0.56618272  0.93083782  0.47096475     0.17700
H451        H  0.63624360  0.06073003  0.00547413     0.17710
F452        F  0.62021323  0.01788170  0.06097675    -0.20050
C453        C  0.51572587  0.93021092  0.34958974    -0.21490
C454        C  0.53363649  0.95373980  0.32042360    -0.09530
C455        C  0.51081302  0.95189007  0.29272890     0.29330
C456        C  0.48236765  0.95370287  0.30565434    -0.21490
C457        C  0.47444754  0.94888259  0.34398279    -0.09540
C458        C  0.48801482  0.93200037  0.36491261     0.29340
F459        F  0.48013823  0.92337953  0.40091095    -0.20060
H460        H  0.52984435  0.92237649  0.36713771     0.17700
H461        H  0.47045964  0.96347264  0.28740814     0.17710
F462        F  0.52353673  0.96360332  0.25814515    -0.20050
C463        C  0.56237831  0.11313798  0.19240726    -0.21490
C464        C  0.53389853  0.11333281  0.20913079    -0.09530
C465        C  0.53537309  0.11756405  0.24819136     0.29330
C466        C  0.56306232  0.11936153  0.26956485    -0.21490
C467        C  0.59087551  0.11783963  0.25291742    -0.09540
C468        C  0.59028897  0.11533858  0.21375030     0.29340
F469        F  0.61569609  0.11293616  0.19606759    -0.20060
H470        H  0.56238101  0.10997321  0.16254625     0.17700
H471        H  0.56195175  0.12054601  0.29954201     0.17710
F472        F  0.50886974  0.11796805  0.26602226    -0.20050
C473        C  0.53679425  0.12763196  0.43966836    -0.21490
C474        C  0.56954147  0.13089605  0.44482262    -0.09530
C475        C  0.59334956  0.15480635  0.97267609     0.29330
C476        C  0.58118606  0.16873218  0.99919723    -0.21490
C477        C  0.54484357  0.15640879  0.99933713    -0.09540
C478        C  0.52520471  0.14217858  0.46617411     0.29340
F479        F  0.49109689  0.13365440  0.46399474    -0.20060
H480        H  0.51895538  0.11135902  0.41701950     0.17700
H481        H  0.59745400  0.18172971  0.02384680     0.17710
F482        F  0.62630319  0.16078177  0.97747937    -0.20050
C483        C  0.91633732  0.46470438  0.12255616    -0.21490
C484        C  0.88874988  0.47105963  0.12144128    -0.09530
C485        C  0.85907084  0.44779803  0.09784056     0.29330
C486        C  0.85823546  0.42057072  0.07525065    -0.21490
C487        C  0.88679557  0.41550385  0.07563041    -0.09540
C488        C  0.91534517  0.43762798  0.10056454     0.29340
F489        F  0.94299477  0.43330993  0.10351469    -0.20060
H490        H  0.93937973  0.48115354  0.14052684     0.17700
H491        H  0.83590062  0.40446973  0.05637866     0.17710
F492        F  0.83150169  0.45223204  0.09533199    -0.20050
C493        C  0.83471217  0.43514966  0.33747670    -0.21490
C494        C  0.84819588  0.43200626  0.30359351    -0.09530
C495        C  0.84786531  0.40075455  0.29567353     0.29330
C496        C  0.84403620  0.37865857  0.32471381    -0.21490
C497        C  0.84164887  0.38892786  0.36091249    -0.09540
C498        C  0.83118523  0.41318345  0.36650329     0.29340
F499        F  0.82681368  0.42192075  0.40147384    -0.20060
H500        H  0.83354841  0.45841831  0.34362655     0.17700
H501        H  0.85074126  0.35893139  0.31990884     0.17710
F502        F  0.85813083  0.39572575  0.26190432    -0.20050
C503        C  0.04467345  0.56342122  0.18225291    -0.21490
C504        C  0.04166932  0.57946869  0.21461165    -0.09530
C505        C  0.05686914  0.57578606  0.24653035     0.29330
C506        C  0.04967206  0.54152921  0.25212186    -0.21490
C507        C  0.03772996  0.51668517  0.22190693    -0.09540
C508        C  0.03870545  0.52931303  0.18590751     0.29340
F509        F  0.02998784  0.50778830  0.15533188    -0.20060
H510        H  0.04024964  0.57082507  0.15533009     0.17700
H511        H  0.05062272  0.53407307  0.28027072     0.17710
F512        F  0.06404836  0.59780431  0.27637897    -0.20050
C513        C  0.21479289  0.71185883  0.40750600    -0.21490
C514        C  0.22041097  0.71172804  0.44598160    -0.09530
C515        C  0.25327795  0.73917202  0.46149205     0.29330
C516        C  0.27798770  0.76817264  0.44009741    -0.21490
C517        C  0.27070070  0.77055368  0.40269353    -0.09540
C518        C  0.23985733  0.74110257  0.38584633     0.29340
F519        F  0.23221329  0.74219423  0.34966749    -0.20060
H520        H  0.18960953  0.69129639  0.39488488     0.17700
H521        H  0.30202891  0.78999228  0.45359971     0.17710
F522        F  0.26013787  0.73961081  0.49826148    -0.20050
C523        C  0.03286220  0.62013353  0.10014609    -0.21490
C524        C  0.04905281  0.65577573  0.08921962    -0.09530
C525        C  0.02908475  0.67156550  0.09027888     0.29330
C526        C  0.99367598  0.65187318  0.10310954    -0.21490
C527        C  0.97701184  0.61538483  0.11181328    -0.09540
C528        C  0.99693150  0.59965498  0.10905331     0.29340
F529        F  0.98223331  0.56467061  0.11754414    -0.20060
H530        H  0.04695099  0.60670325  0.09752923     0.17700
H531        H  0.97954354  0.66511475  0.10682070     0.17710
F532        F  0.04340097  0.70533557  0.07742775    -0.20050
C533        C  0.99494684  0.60937231  0.38937529    -0.21490
C534        C  0.02979162  0.62787559  0.37459778    -0.09530
C535        C  0.03310317  0.63371929  0.33609229     0.29330
C536        C  0.00246775  0.61796785  0.31285802    -0.21490
C537        C  0.96772163  0.59513300  0.32721757    -0.09540
C538        C  0.96435628  0.59289390  0.36605573     0.29340
F539        F  0.93148847  0.57128905  0.38115203    -0.20060
H540        H  0.99124054  0.60422610  0.41880120     0.17700
H541        H  0.00622401  0.62016818  0.28310634     0.17710
F542        F  0.06599575  0.65118455  0.32042090    -0.20050
C543        C  0.95014206  0.49440972  0.45792350    -0.21490
C544        C  0.96568467  0.48439209  0.48534181    -0.09530
C545        C  0.96908087  0.49825520  0.52182152     0.29330
C546        C  0.96619502  0.52784088  0.52677457    -0.21490
C547        C  0.96822039  0.54588561  0.49435067    -0.09540
C548        C  0.94649556  0.52302293  0.46556917     0.29340
F549        F  0.93619950  0.53587679  0.43806697    -0.20060
H550        H  0.94542024  0.48484061  0.42969703     0.17700
H551        H  0.97459679  0.54229733  0.55302341     0.17710
F552        F  0.98078210  0.48782997  0.55046010    -0.20050
C553        C  0.14830599  0.56761665  0.11440409    -0.21490
C554        C  0.11677795  0.53271187  0.11715527    -0.09530
C555        C  0.08703338  0.52561841  0.09564839     0.29330
C556        C  0.08810844  0.55254919  0.07414984    -0.21490
C557        C  0.11904265  0.58788232  0.07225182    -0.09540
C558        C  0.14952670  0.59469862  0.09237990     0.29340
F559        F  0.18036077  0.62790789  0.09181476    -0.20060
H560        H  0.17179564  0.57440925  0.13031212     0.17700
H561        H  0.06423266  0.54550844  0.05882071     0.17710
F562        F  0.05650656  0.49209278  0.09505693    -0.20050
C563        C  0.16963194  0.61827105  0.34702493    -0.21490
C564        C  0.15192351  0.59760036  0.37827831    -0.09530
C565        C  0.15598224  0.56938045  0.38749908     0.29330
C566        C  0.16995221  0.55699599  0.36132755    -0.21490
C567        C  0.17570185  0.57038630  0.32536316    -0.09540
C568        C  0.18326410  0.60531290  0.32100059     0.29340
F569        F  0.19336197  0.62109937  0.28736314    -0.20060
H570        H  0.16883196  0.64148247  0.34036968     0.17700
H571        H  0.16721776  0.53161158  0.36624840     0.17710
F572        F  0.14261959  0.55116679  0.41956358    -0.20050
C573        C  0.54357439  0.77733516  0.11959301    -0.21490
C574        C  0.53917647  0.79877855  0.09496395    -0.09530
C575        C  0.53594159  0.79030198  0.05664634     0.29330
C576        C  0.53850416  0.76197211  0.04349814    -0.21490
C577        C  0.54447893  0.74155619  0.06807148    -0.09540
C578        C  0.54627559  0.74917975  0.10649581     0.29340
F579        F  0.55123060  0.72989635  0.13166128    -0.20060
H580        H  0.54602363  0.78298652  0.14918085     0.17700
H581        H  0.53672243  0.75665157  0.01387498     0.17710
F582        F  0.53078588  0.80959058  0.03168825    -0.20050
C583        C  0.53763257  0.51966025  0.07072672    -0.21490
C584        C  0.55060990  0.53395599  0.03547346    -0.09530
C585        C  0.52894220  0.51655960  0.00409245     0.29330
C586        C  0.49375900  0.48761940  0.00845128    -0.21490
C587        C  0.47989130  0.47568817  0.04410663    -0.09540
C588        C  0.50195929  0.49305243  0.07532669     0.29340
F589        F  0.48918599  0.48476659  0.11047589    -0.20060
H590        H  0.55378502  0.53242015  0.09551520     0.17700
H591        H  0.47725005  0.47464595  0.98398986     0.17710
F592        F  0.54100246  0.52890190  0.96958216    -0.20050
C593        C  0.46990488  0.53582073  0.39175238    -0.21490
C594        C  0.43784180  0.53418712  0.38551522    -0.09530
C595        C  0.43588663  0.56204211  0.40267483     0.29330
C596        C  0.46445196  0.58959340  0.42527795    -0.21490
C597        C  0.49621138  0.59067337  0.43197615    -0.09540
C598        C  0.49829962  0.56322239  0.41411967     0.29340
F599        F  0.52837438  0.56308346  0.41748247    -0.20060
H600        H  0.47324753  0.51558013  0.37916571     0.17700
H601        H  0.46138394  0.60993265  0.43805897     0.17710
F602        F  0.40617202  0.56265515  0.39801690    -0.20050
C603        C  0.44487955  0.58546808  0.19392493    -0.21490
C604        C  0.41569880  0.55043301  0.18578662    -0.09530
C605        C  0.40539141  0.53928800  0.14882510     0.29330
C606        C  0.42946200  0.55911589  0.12088381    -0.21490
C607        C  0.46270625  0.59031401  0.13020918    -0.09540
C608        C  0.46862852  0.60572637  0.16589770     0.29340
F609        F  0.50035000  0.63649434  0.17515979    -0.20060
H610        H  0.45263917  0.59437516  0.22251082     0.17700
H611        H  0.42441687  0.54753174  0.09309380     0.17710
F612        F  0.37654911  0.50572488  0.14058099    -0.20050
C613        C  0.77091004  0.53078549  0.22171153    -0.21490
C614        C  0.79432362  0.53008054  0.24690274    -0.09530
C615        C  0.78804197  0.53081844  0.28538175     0.29330
C616        C  0.76012644  0.53393347  0.29789345    -0.21490
C617        C  0.73803929  0.53661149  0.27254111    -0.09540
C618        C  0.74320799  0.53400795  0.23417429     0.29340
F619        F  0.72174422  0.53499687  0.20833930    -0.20060
H620        H  0.77460456  0.52992135  0.19209177     0.17700
H621        H  0.75663292  0.53555837  0.32744822     0.17710
F622        F  0.80933972  0.52948791  0.31115020    -0.20050
C623        C  0.68063796  0.65390441  0.41733571    -0.21490
C624        C  0.66091670  0.64116648  0.38423663    -0.09530
C625        C  0.64650738  0.65991162  0.36933583     0.29330
C626        C  0.64295392  0.68328269  0.39200470    -0.21490
C627        C  0.65334472  0.68713263  0.42908178    -0.09540
C628        C  0.67847236  0.67882617  0.43907953     0.29340
F629        F  0.69298069  0.68686598  0.47377154    -0.20060
H630        H  0.69440139  0.64206596  0.42810947     0.17700
H631        H  0.62597498  0.69205948  0.38273759     0.17710
F632        F  0.63198981  0.65251385  0.33466629    -0.20050
C633        C  0.65387714  0.61825493  0.15213985    -0.21490
C634        C  0.64455846  0.61186840  0.18984818    -0.09530
C635        C  0.62778064  0.62809910  0.20561292     0.29330
C636        C  0.61578037  0.64514211  0.18312046    -0.21490
C637        C  0.62097397  0.64740751  0.14443483    -0.09540
C638        C  0.64326478  0.63681503  0.12998097     0.29340
F639        F  0.65015046  0.63936930  0.09308925    -0.20060
H640        H  0.66626483  0.60577191  0.13890000     0.17700
H641        H  0.59827111  0.65226394  0.19525599     0.17710
F642        F  0.61799208  0.62259400  0.24180497    -0.20050
C643        C  0.51325068  0.47354518  0.31340453    -0.21490
C644        C  0.52305071  0.49185345  0.27941978    -0.09530
C645        C  0.51000697  0.47095385  0.24608615     0.29330
C646        C  0.48456611  0.43394639  0.24836376    -0.21490
C647        C  0.46516569  0.42287666  0.28140418    -0.09540
C648        C  0.48597094  0.43696945  0.31376526     0.29340
F649        F  0.47271154  0.42065652  0.34672465    -0.20060
H650        H  0.52456050  0.48769214  0.33932790     0.17700
H651        H  0.47208914  0.41897726  0.22280439     0.17710
F652        F  0.51808358  0.48616037  0.21209362    -0.20050
C653        C  0.58145618  0.44955159  0.40969192    -0.21490
C654        C  0.57924830  0.47824095  0.39685144    -0.09530
C655        C  0.54972333  0.47888374  0.40997509     0.29330
C656        C  0.52327955  0.45178402  0.43317674    -0.21490
C657        C  0.52489150  0.42280314  0.44580190    -0.09540
C658        C  0.55489598  0.42236977  0.43353148     0.29340
F659        F  0.55872055  0.39561522  0.44441918    -0.20060
H660        H  0.60354540  0.44775199  0.40082100     0.17700
H661        H  0.50103854  0.45358176  0.44114319     0.17710
F662        F  0.54672334  0.50666565  0.40124905    -0.20050
C663        C  0.55941637  0.39963419  0.16913950    -0.21490
C664        C  0.55933032  0.41442118  0.13520889    -0.09530
C665        C  0.59146426  0.44434262  0.12189424     0.29330
C666        C  0.62042148  0.46416242  0.14614608    -0.21490
C667        C  0.61529348  0.45545951  0.18370767    -0.09540
C668        C  0.58861579  0.41984645  0.19319723     0.29340
F669        F  0.58529030  0.40953597  0.22902544    -0.20060
H670        H  0.53524700  0.37580474  0.17926920     0.17700
H671        H  0.64233975  0.49060245  0.13777512     0.17710
F672        F  0.59271068  0.45762756  0.08785488    -0.20050
O673        O  0.56503938  0.54484995  0.74943024    -0.81070
O674        O  0.70061859  0.55747389  0.76180547    -0.65760
O675        O  0.60288593  0.51983279  0.77183928    -1.12360
C676        C  0.65237460  0.60730976  0.86656977     1.05820
O677        O  0.69711359  0.53562798  0.81805202    -0.78970
O678        O  0.63919086  0.51763413  0.86852768    -0.66550
Ni679      Ni  0.57506814  0.51248753  0.72870870     1.34870
C680        C  0.60615178  0.50723141  0.86976002     0.84550
O681        O  0.64438393  0.50867916  0.72123895    -0.79510
O682        O  0.58542701  0.47955862  0.70945700    -0.89780
C683        C  0.71103887  0.54407094  0.78526077     0.84130
O684        O  0.60984886  0.54956556  0.69757559    -0.67990
O685        O  0.67027616  0.59339003  0.87488367    -0.87270
C686        C  0.63828641  0.57861934  0.70760882     0.84960
C687        C  0.61538891  0.48271838  0.70678657     1.06520
H688        H  0.67437790  0.59274937  0.79890382     0.38330
O689        O  0.65901878  0.56771451  0.80560117    -1.09930
O690        O  0.59456027  0.52149480  0.84874249    -0.66580
Ni691      Ni  0.61217476  0.55629653  0.80882602     1.26350
O692        O  0.65814695  0.57927478  0.73365082    -0.66810
O693        O  0.62664824  0.59354888  0.84322609    -0.79100
C694        C  0.54854702  0.53117127  0.77903611     0.84340
O695        O  0.56483424  0.54644441  0.80877245    -0.66280
Ni696      Ni  0.68067950  0.56200471  0.84715808     1.27450
Ni697      Ni  0.65175729  0.53915084  0.76362010     1.26060
H698        H  0.59265258  0.49687882  0.78374812     0.38880
O699        O  0.58450309  0.58944338  0.56465743    -0.81070
O700        O  0.56117282  0.69977533  0.57612869    -0.65760
O701        O  0.54317480  0.61035979  0.54551981    -1.12360
C702        C  0.62569621  0.67896549  0.95631305     1.05820
O703        O  0.54391946  0.70352555  0.51920873    -0.78970
O704        O  0.52930520  0.64863934  0.96672672    -0.66550
Ni705      Ni  0.53974189  0.57916144  0.58183400     1.34870
C706        C  0.52663032  0.61927016  0.95760831     0.84550
O707        O  0.51750253  0.63265675  0.60239932    -0.79510
O708        O  0.49629790  0.57337339  0.59728591    -0.89780
C709        C  0.55042306  0.71372838  0.55362614     0.84130
O710        O  0.56258062  0.61067222  0.62309252    -0.67990
O711        O  0.60420271  0.68940540  0.95173115    -0.87270
C712        C  0.59078925  0.64138480  0.62041432     0.84960
C713        C  0.49344696  0.59937502  0.60774796     1.06520
H714        H  0.60822791  0.69240386  0.53314375     0.38330
O715        O  0.58462996  0.67403590  0.52390985    -1.09930
O716        O  0.54961822  0.61328758  0.96990007    -0.66580
Ni717      Ni  0.58303083  0.63188680  0.51240442     1.26350
O718        O  0.59272939  0.66311902  0.59602248    -0.66810
O719        O  0.62192289  0.65735745  0.98133118    -0.79100
C720        C  0.57874532  0.57234732  0.53458412     0.84340
O721        O  0.58344144  0.58933591  0.50513540    -0.66280
Ni722      Ni  0.57232040  0.69366447  0.98557356     1.27450
Ni723      Ni  0.55241628  0.65436357  0.56357177     1.26060
H724        H  0.52097056  0.59819622  0.53158074     0.38880
O725        O  0.01496867  0.56869596  0.94932774    -0.81070
O726        O  0.16383826  0.65846753  0.96196065    -0.65760
O727        O  0.09003411  0.60890168  0.96421072    -1.12360
C728        C  0.07482534  0.66511607  0.56000700     1.05820
O729        O  0.18719388  0.70635423  0.99898553    -0.78970
O730        O  0.14661009  0.64668351  0.54237927    -0.66550
Ni731      Ni  0.05728743  0.57120498  0.93151544     1.34870
C732        C  0.11821252  0.61655339  0.54991615     0.84550
O733        O  0.12922790  0.63246456  0.89801062    -0.79510
O734        O  0.09863896  0.57403165  0.91244840    -0.89780
C735        C  0.18968629  0.69010415  0.97097733     0.84130
O736        O  0.05796476  0.59858136  0.89095183    -0.67990
O737        O  0.10763087  0.67606516  0.56609744    -0.87270
C738        C  0.05829410  0.62696825  0.89542139     0.84960
C739        C  0.12555669  0.60182620  0.89775422     1.06520
H740        H  0.11025086  0.68986846  0.98167860     0.38330
O741        O  0.11545882  0.67209000  0.98760263    -1.09930
O742        O  0.08812761  0.61036939  0.53908587    -0.66580
Ni743      Ni  0.07328207  0.62879009  0.99824249     1.26350
O744        O  0.08074132  0.65165889  0.91830557    -0.66810
O745        O  0.05988975  0.65287729  0.52907712    -0.79100
C746        C  0.00604634  0.56975970  0.98275240     0.84340
O747        O  0.02936929  0.58653423  0.00752561    -0.66280
Ni748      Ni  0.14690184  0.68959404  0.53089642     1.27450
Ni749      Ni  0.12225707  0.65380512  0.94130791     1.26060
H750        H  0.10351931  0.60106745  0.97684988     0.38880
O751        O  0.99084402  0.55918104  0.75284402    -0.81070
O752        O  0.84922930  0.53506813  0.75693939    -0.65760
O753        O  0.92020297  0.51948113  0.72833424    -1.12360
C754        C  0.94872268  0.59912290  0.63934006     1.05820
O755        O  0.83034619  0.52887772  0.69758092    -0.78970
O756        O  0.86671374  0.50540267  0.65201658    -0.66550
Ni757      Ni  0.94700946  0.51369946  0.76360563     1.34870
C758        C  0.89306115  0.50269166  0.64418435     0.84550
O759        O  0.86719183  0.48966889  0.78150742    -0.79510
O760        O  0.90335591  0.46940011  0.77474645    -0.89780
C761        C  0.82640454  0.53131831  0.73298003     0.84130
O762        O  0.94010198  0.53578420  0.80542358    -0.67990
O763        O  0.91507731  0.57749410  0.63158241    -0.87270
C764        C  0.94020084  0.56409887  0.80340898     0.84960
C765        C  0.87372480  0.46516428  0.78442680     1.06520
H766        H  0.90909645  0.58462354  0.71821881     0.38330
O767        O  0.90214377  0.56145156  0.70775613    -1.09930
O768        O  0.92455914  0.52734076  0.65551283    -0.66580
Ni769      Ni  0.94228674  0.56056471  0.69891100     1.26350
O770        O  0.91969817  0.56583860  0.77991713    -0.66810
O771        O  0.96104383  0.60177123  0.67128196    -0.79100
C772        C  0.00435012  0.56826026  0.72055694     0.84340
O773        O  0.98470233  0.56241865  0.69280224    -0.66280
Ni774      Ni  0.87309110  0.55156815  0.66538489     1.27450
Ni775      Ni  0.88509528  0.52682638  0.74509474     1.26060
H776        H  0.90842142  0.49778026  0.71316778     0.38880
O777        O  0.55596361  0.99935353  0.86814402    -0.81070
O778        O  0.67862642  0.14408713  0.90340546    -0.65760
O779        O  0.59116749  0.07303605  0.85932342    -1.12360
C780        C  0.66737705  0.06546591  0.77909599     1.05820
O781        O  0.69287242  0.17202606  0.84904233    -0.78970
O782        O  0.64668748  0.13742445  0.78725894    -0.66550
Ni783      Ni  0.55313854  0.03866532  0.88799723     1.34870
C784        C  0.61537878  0.11167991  0.77643947     0.84550
O785        O  0.61013209  0.11758838  0.92141748    -0.79510
O786        O  0.55148256  0.07796414  0.90891121    -0.89780
C787        C  0.69918792  0.17158464  0.88389261     0.84130
O788        O  0.57725826  0.03839266  0.93128415    -0.67990
O789        O  0.68341114  0.09997459  0.77666964    -0.87270
C790        C  0.60882454  0.04598911  0.93421640     0.84960
C791        C  0.57744382  0.10759049  0.92345119     1.06520
H792        H  0.67016710  0.08993145  0.85591570     0.38330
O793        O  0.65594382  0.09801351  0.84546075    -1.09930
O794        O  0.60312243  0.07952999  0.78574696    -0.66580
Ni795      Ni  0.61345080  0.05826725  0.82630460     1.26350
O796        O  0.63448540  0.07143304  0.91528781    -0.66810
O797        O  0.63839762  0.04587092  0.79627604    -0.79100
C798        C  0.55648375  0.99162794  0.83387856     0.84340
O799        O  0.57155686  0.01624403  0.81057392    -0.66280
Ni800      Ni  0.68499097  0.13531777  0.81210645     1.27450
Ni801      Ni  0.63376375  0.10747786  0.88401138     1.26060
H802        H  0.58280882  0.08575388  0.84602490     0.38880
O803        O  0.56040603  0.99197642  0.60441442    -0.81070
O804        O  0.54359407  0.85420388  0.58659202    -0.65760
O805        O  0.52466649  0.92138232  0.62349560    -1.12360
C806        C  0.61906246  0.95337465  0.70211809     1.05820
O807        O  0.53773173  0.83451823  0.64466678    -0.78970
O808        O  0.52359267  0.86958898  0.69999045    -0.66550
Ni809      Ni  0.51556828  0.94809166  0.59189994     1.34870
C810        C  0.51612245  0.89286626  0.70784754     0.84550
O811        O  0.49414594  0.86912000  0.56810627    -0.79510
O812        O  0.47224136  0.90371539  0.57863014    -0.89780
C813        C  0.54033614  0.83094674  0.60942838     0.84130
O814        O  0.53653658  0.94535867  0.54721816    -0.67990
O815        O  0.60106080  0.91926651  0.70861483    -0.87270
C816        C  0.56405968  0.94435663  0.54467667     0.84960
C817        C  0.46906735  0.87485168  0.56633481     1.06520
H818        H  0.59364930  0.91740071  0.62611885     0.37610
O819        O  0.57091807  0.90774182  0.63828661    -1.09930
O820        O  0.53640560  0.92509463  0.69670755    -0.66580
Ni821      Ni  0.56644006  0.94562144  0.65293967     1.26350
O822        O  0.56849945  0.92423646  0.56610633    -0.66810
O823        O  0.60840786  0.96723257  0.67989748    -0.79100
C824        C  0.56722224  0.00504945  0.63725068     0.84340
O825        O  0.56415261  0.98565892  0.66392233    -0.66280
Ni826      Ni  0.56708068  0.87725223  0.67663371     1.27450
Ni827      Ni  0.53381353  0.88866957  0.60239941     1.26060
H828        H  0.50390830  0.90764760  0.63873162     0.38880
O829        O  0.46605402  0.01905975  0.57453473    -0.81070
O830        O  0.45058758  0.14201215  0.58085392    -0.65760
O831        O  0.48582605  0.08408828  0.59771100    -1.12360
C832        C  0.40662520  0.04162502  0.69322876     1.05820
O833        O  0.46611361  0.16242394  0.63973764    -0.78970
O834        O  0.49401092  0.12900020  0.68210684    -0.66550
Ni835      Ni  0.49887852  0.06570493  0.55781774     1.34870
C836        C  0.50130144  0.10515431  0.68643780     0.84550
O837        O  0.49856763  0.13574836  0.54365514    -0.79510
O838        O  0.53245711  0.11311641  0.54214714    -0.89780
C839        C  0.45903511  0.16609057  0.60588128     0.84130
O840        O  0.46412521  0.05994866  0.52264981    -0.67990
O841        O  0.42382844  0.07558090  0.70139867    -0.87270
C842        C  0.43396406  0.05505668  0.52942079     0.84960
C843        C  0.52519289  0.13551089  0.53161719     1.06520
H844        H  0.41369213  0.08020127  0.61930531     0.38330
O845        O  0.43825600  0.09055798  0.62690463    -1.09930
O846        O  0.48081938  0.07350823  0.67215844    -0.66580
Ni847      Ni  0.44609834  0.05392285  0.63041180     1.26350
O848        O  0.43028853  0.07359325  0.55457641    -0.66810
O849        O  0.40711347  0.02931572  0.66158227    -0.79100
C850        C  0.47190011  0.01545390  0.60777838     0.84340
O851        O  0.45063187  0.01382247  0.63139091    -0.66280
Ni852      Ni  0.44650067  0.11868282  0.66995263     1.27450
Ni853      Ni  0.46831153  0.11277236  0.58605732     1.26060
H854        H  0.50741315  0.09911147  0.61221349     0.38880
O855        O  0.45632080  0.96997744  0.89516526    -0.81070
O856        O  0.30636209  0.83357803  0.90510659    -0.65760
O857        O  0.40299308  0.90107608  0.88403168    -1.12360
C858        C  0.35370900  0.92315860  0.78511356     1.05820
O859        O  0.30295319  0.80791908  0.84996701    -0.78970
O860        O  0.36411400  0.84658974  0.80365980    -0.66550
Ni861      Ni  0.43845359  0.92778175  0.92199523     1.34870
C862        C  0.39509889  0.87404463  0.79592136     0.84550
O863        O  0.36427431  0.84995205  0.94080563    -0.79510
O864        O  0.42328303  0.88613549  0.94996138    -0.89780
C865        C  0.29364564  0.80568251  0.88434279     0.84130
O866        O  0.41028361  0.93979113  0.94992250    -0.67990
O867        O  0.33814434  0.88874301  0.78040058    -0.87270
C868        C  0.37855047  0.93221016  0.94689546     0.84960
C869        C  0.39296721  0.85791843  0.95648560     1.06520
H870        H  0.32746070  0.89059765  0.86179005     0.38330
O871        O  0.34345425  0.88314208  0.85536724    -1.09930
O872        O  0.40415332  0.90524660  0.80726687    -0.66580
Ni873      Ni  0.38897202  0.92356142  0.84791297     1.26350
O874        O  0.35380147  0.90522888  0.92744576    -0.66810
O875        O  0.37029740  0.94030237  0.81441944    -0.79100
C876        C  0.45784280  0.96664112  0.86065539     0.84340
O877        O  0.43462668  0.96678072  0.84186075    -0.66280
Ni878      Ni  0.32260778  0.84913110  0.81572109     1.27450
Ni879      Ni  0.35486146  0.86793403  0.89788027     1.26060
H880        H  0.41027702  0.88701955  0.87100061     0.38880
O881        O  0.42628339  0.43386791  0.74909939    -0.81070
O882        O  0.31382478  0.45871035  0.75637901    -0.65760
O883        O  0.40500469  0.47783810  0.77461153    -1.12360
C884        C  0.35510981  0.40852860  0.87433663     1.05820
O885        O  0.31353827  0.47771181  0.81460127    -0.78970
O886        O  0.37782552  0.50079760  0.85615521    -0.66550
Ni887      Ni  0.43211333  0.47834022  0.73490614     1.34870
C888        C  0.40720959  0.50300858  0.86216417     0.84550
O889        O  0.37640286  0.49897029  0.72045194    -0.79510
O890        O  0.43546774  0.52099837  0.72033013    -0.89780
C891        C  0.30129331  0.46982255  0.78082979     0.84130
O892        O  0.39532733  0.45240317  0.69868521    -0.67990
O893        O  0.34525545  0.43039024  0.88093452    -0.87270
C894        C  0.36630427  0.42378256  0.70670768     0.84960
C895        C  0.40869308  0.52261287  0.71147804     1.06520
H896        H  0.32518501  0.41538216  0.79879792     0.38330
O897        O  0.34477554  0.43964560  0.80515565    -1.09930
O898        O  0.41104568  0.47827001  0.84924004    -0.66580
Ni899      Ni  0.38668863  0.44092166  0.80947184     1.26350
O900        O  0.34740683  0.42430487  0.73322154    -0.66810
O901        O  0.36453038  0.40407247  0.84287474    -0.79100
C902        C  0.43653900  0.42987694  0.78039641     0.84340
O903        O  0.42732346  0.43841417  0.80993113    -0.66280
Ni904      Ni  0.33148349  0.45537797  0.84703329     1.27450
Ni905      Ni  0.35974611  0.46809147  0.76275912     1.26060
H906        H  0.41867385  0.50112124  0.78698954     0.38880
O907        O  0.43952705  0.42628391  0.57960679    -0.81070
O908        O  0.45582742  0.30787377  0.58171071    -0.65760
O909        O  0.47609589  0.39922393  0.55865450    -1.12360
C910        C  0.39992987  0.34066426  0.96195679     1.05820
O911        O  0.47167311  0.30355569  0.52372188    -0.78970
O912        O  0.49296400  0.36495184  0.97901242    -0.66550
Ni913      Ni  0.48119201  0.43041228  0.59780211     1.34870
C914        C  0.49496037  0.39397952  0.97090455     0.84550
O915        O  0.49998505  0.37325634  0.61360764    -0.79510
O916        O  0.52287185  0.43270771  0.61329001    -0.89780
C917        C  0.46424320  0.29261325  0.55752753     0.84130
O918        O  0.45403826  0.39616843  0.63513756    -0.67990
O919        O  0.42170954  0.33071878  0.95646536    -0.87270
C920        C  0.42538409  0.36628023  0.62812621     0.84960
C921        C  0.52554482  0.40607313  0.61939274     1.06520
H922        H  0.41111696  0.31732477  0.53931568     0.38330
O923        O  0.43486011  0.33634280  0.53173805    -1.09930
O924        O  0.47093622  0.39889822  0.98313418    -0.66580
Ni925      Ni  0.43612528  0.37836763  0.52455586     1.26350
O926        O  0.42495925  0.34507797  0.60327084    -0.66810
O927        O  0.39716179  0.35319222  0.99249887    -0.79100
C928        C  0.44612452  0.44082641  0.54835262     0.84340
O929        O  0.43462084  0.42028867  0.52021699    -0.66280
Ni930      Ni  0.44801805  0.31933079  0.99075475     1.27450
Ni931      Ni  0.46611154  0.35414061  0.57284999     1.26060
H932        H  0.49830737  0.41138435  0.54513647     0.38880
O933        O  0.03152933  0.47137714  0.75973058    -0.81070
O934        O  0.15636535  0.46524931  0.75673645    -0.65760
O935        O  0.09630924  0.49701944  0.73601686    -1.12360
C936        C  0.05322198  0.40594548  0.64720103     1.05820
O937        O  0.17538838  0.47957722  0.69832063    -0.78970
O938        O  0.13767982  0.49897119  0.65006816    -0.66550
Ni939      Ni  0.07705387  0.50882137  0.77607200     1.34870
C940        C  0.11278872  0.50438515  0.64407863     0.84550
O941        O  0.15063480  0.51629396  0.78931102    -0.79510
O942        O  0.12366519  0.54638671  0.79070076    -0.89780
C943        C  0.17977148  0.47300174  0.73202728     0.84130
O944        O  0.07608249  0.47839518  0.81338752    -0.67990
O945        O  0.08680596  0.42360541  0.63892607    -0.87270
C946        C  0.07122647  0.44797649  0.80722673     0.84960
C947        C  0.14958975  0.54346807  0.79887615     1.06520
H948        H  0.09281257  0.42372774  0.71903217     0.38330
O949        O  0.10278310  0.44784691  0.71016128    -1.09930
O950        O  0.08291618  0.48546513  0.66048207    -0.66580
Ni951      Ni  0.06591133  0.45534052  0.70422880     1.26350
O952        O  0.08906568  0.44398008  0.78204749    -0.66810
O953        O  0.04076223  0.41431252  0.67422913    -0.79100
C954        C  0.02646648  0.47931929  0.72808950     0.84340
O955        O  0.02717177  0.46169709  0.70100726    -0.66280
Ni956      Ni  0.13074459  0.45389780  0.66851504     1.27450
Ni957      Ni  0.12604312  0.48129902  0.74936512     1.26060
H958        H  0.11005927  0.51823732  0.72109845     0.38880
O959        O  0.98142485  0.45451018  0.94239731    -0.81070
O960        O  0.85425007  0.30571936  0.93100669    -0.65760
O961        O  0.91489671  0.40382436  0.95616649    -1.12360
C962        C  0.94655377  0.35453760  0.54859451     1.05820
O963        O  0.83021424  0.30083034  0.98690878    -0.78970
O964        O  0.86553128  0.35862690  0.54049887    -0.66550
Ni965      Ni  0.93810049  0.43857773  0.91850126     1.34870
C966        C  0.89055189  0.39143581  0.54791692     0.84550
O967        O  0.86458451  0.36310644  0.89839446    -0.79510
O968        O  0.89383493  0.42309888  0.89545561    -0.89780
C969        C  0.82780784  0.28999615  0.95291183     0.84130
O970        O  0.94738049  0.41175143  0.88425946    -0.67990
O971        O  0.91240167  0.33532894  0.55365910    -0.87270
C972        C  0.94673636  0.38324931  0.88883504     0.84960
C973        C  0.86752327  0.39149753  0.88726930     1.06520
H974        H  0.91457243  0.33297691  0.97423657     0.38330
O975        O  0.90434273  0.34634680  0.98194335    -1.09930
O976        O  0.92094356  0.40537637  0.53288694    -0.66580
Ni977      Ni  0.94128334  0.39420373  0.99165818     1.26350
O978        O  0.92420623  0.35820756  0.91054587    -0.66810
O979        O  0.96216390  0.37917087  0.52462639    -0.79100
C980        C  0.98098549  0.46324966  0.97567838     0.84340
O981        O  0.98015354  0.44296545  0.99980580    -0.66280
Ni982      Ni  0.87183706  0.32075454  0.52047977     1.27450
Ni983      Ni  0.88545684  0.35520351  0.94038456     1.26060
H984        H  0.89992667  0.40962757  0.96954472     0.38880
C985        C  0.03338928  0.37697199  0.58523293    -0.21490
C986        C  0.02619979  0.37678167  0.62294411    -0.09530
C987        C  0.99039013  0.35516182  0.63523879     0.29330
C988        C  0.96247281  0.34273937  0.60981978    -0.21490
C989        C  0.97051187  0.35058562  0.57240964    -0.09540
C990        C  0.00536436  0.36327079  0.55980159     0.29340
F991        F  0.01309230  0.36736812  0.52303050    -0.20060
H992        H  0.06064639  0.39182234  0.57520159     0.17700
H993        H  0.93551590  0.33132039  0.61985552     0.17710
F994        F  0.98254963  0.35089256  0.67198419    -0.20050
C995        C  0.00969907  0.40037155  0.88740976    -0.21490
C996        C  0.97605668  0.38280731  0.86943176    -0.09530
C997        C  0.97540912  0.37952624  0.83043730     0.29330
C998        C  0.00754010  0.39606383  0.81008466    -0.21490
C999        C  0.04114488  0.41725726  0.82796560    -0.09540
C1000       C  0.04179925  0.41780863  0.86705210     0.29340
F1001       F  0.07340969  0.43880556  0.88550349    -0.20060
H1002       H  0.01129206  0.40460178  0.91723584     0.17700
H1003       H  0.00598937  0.39608157  0.78008221     0.17710
F1004       F  0.94384182  0.36430307  0.81177597    -0.20050
C1005       C  0.26540502  0.47426192  0.73051067    -0.21490
C1006       C  0.27231034  0.47439366  0.76873607    -0.09530
C1007       C  0.24994152  0.47662234  0.79442823     0.29330
C1008       C  0.22068310  0.47722249  0.78206191    -0.21490
C1009       C  0.21301561  0.47577823  0.74386537    -0.09540
C1010       C  0.23621580  0.47503048  0.71813919     0.29340
F1011       F  0.23000103  0.47354921  0.68109390    -0.20060
H1012       H  0.28228273  0.47284553  0.70993733     0.17700
H1013       H  0.20353587  0.47813526  0.80266397     0.17710
F1014       F  0.25528593  0.47667117  0.83149891    -0.20050
C1015       C  0.41058978  0.38255358  0.91643292    -0.21490
C1016       C  0.38544573  0.34924305  0.93148957    -0.09530
C1017       C  0.34895718  0.33691271  0.93131766     0.29330
C1018       C  0.33805631  0.35800526  0.91572089    -0.21490
C1019       C  0.36388766  0.39249677  0.90315174    -0.09540
C1020       C  0.40031311  0.40493913  0.90480505     0.29340
F1021       F  0.42591354  0.43806467  0.89235800    -0.20060
H1022       H  0.43894941  0.39316885  0.91775852     0.17700
H1023       H  0.30980556  0.34738094  0.91289645     0.17710
F1024       F  0.32443870  0.30542412  0.94764743    -0.20050
C1025       C  0.37406295  0.37337771  0.62818493    -0.21490
C1026       C  0.39256826  0.36052188  0.64650575    -0.09530
C1027       C  0.38912769  0.35741294  0.68536670     0.29330
C1028       C  0.37147719  0.37082924  0.70528711    -0.21490
C1029       C  0.35965384  0.39046935  0.68735686    -0.09540
C1030       C  0.35876132  0.38911801  0.64823848     0.29340
F1031       F  0.34779241  0.40762392  0.62945219    -0.20060
H1032       H  0.37589121  0.37604847  0.59832463     0.17700
H1033       H  0.37217188  0.37076155  0.73531119     0.17710
F1034       F  0.40665832  0.34553953  0.70449803    -0.20050
C1035       C  0.46126904  0.20572592  0.55600742    -0.21490
C1036       C  0.46256318  0.19981813  0.59413990    -0.09530
C1037       C  0.46667742  0.22599063  0.61989632     0.29330
C1038       C  0.46822788  0.25654852  0.60765973    -0.21490
C1039       C  0.46604004  0.26189991  0.56957086    -0.09540
C1040       C  0.46305113  0.23631818  0.54380196     0.29340
F1041       F  0.46032439  0.23995336  0.50685792    -0.20060
H1042       H  0.45842829  0.18635004  0.53531017     0.17700
H1043       H  0.47069578  0.27588836  0.62818692     0.17710
F1044       F  0.46830242  0.22177695  0.65689670    -0.20050
C1045       C  0.41121652  0.99789042  0.72528193    -0.21490
C1046       C  0.39227861  0.01423658  0.72130646    -0.09530
C1047       C  0.35686914  0.99666395  0.73380652     0.29330
C1048       C  0.34141687  0.96348256  0.75167069    -0.21490
C1049       C  0.36053741  0.94696047  0.75469538    -0.09540
C1050       C  0.39530551  0.96434406  0.74071529     0.29340
F1051       F  0.41550471  0.95066743  0.74574669    -0.20060
H1052       H  0.43820179  0.01060071  0.71470886     0.17700
H1053       H  0.31531354  0.95138011  0.76424555     0.17710
F1054       F  0.33754336  0.01138615  0.72866821    -0.20050
C1055       C  0.38404557  0.99054369  0.52567451    -0.21490
C1056       C  0.40324474  0.02434637  0.50849197    -0.09530
C1057       C  0.40325768  0.02475808  0.96944371     0.29330
C1058       C  0.38809756  0.99247379  0.94849353    -0.21490
C1059       C  0.37337166  0.95903863  0.96587749    -0.09540
C1060       C  0.36965740  0.95826217  0.00471929     0.29340
F1061       F  0.35689857  0.92694395  0.52277270    -0.20060
H1062       H  0.38452976  0.98929939  0.55565589     0.17700
H1063       H  0.39245556  0.99420179  0.91879395     0.17710
F1064       F  0.42238448  0.05664699  0.95167936    -0.20050
C1065       C  0.47134339  0.86303180  0.76224647    -0.21490
C1066       C  0.48232079  0.88305366  0.72914105    -0.09530
C1067       C  0.46119938  0.89576971  0.71700245     0.29330
C1068       C  0.43133558  0.88955781  0.73725404    -0.21490
C1069       C  0.42157461  0.87170550  0.77134948    -0.09540
C1070       C  0.44185085  0.85794862  0.78336889     0.29340
F1071       F  0.43439088  0.84122209  0.81644429    -0.20060
H1072       H  0.48672515  0.85290669  0.77285025     0.17700
H1073       H  0.41616202  0.89974381  0.72645651     0.17710
F1074       F  0.46973951  0.91516978  0.68560624    -0.20050
C1075       C  0.43925243  0.83266233  0.01350849    -0.21490
C1076       C  0.43634673  0.84915941  0.54555825    -0.09530
C1077       C  0.40533392  0.84939389  0.55087381     0.29330
C1078       C  0.38262746  0.84189163  0.02081918    -0.21490
C1079       C  0.39196732  0.83552057  0.98590780    -0.09540
C1080       C  0.41671381  0.82559894  0.98341512     0.29340
F1081       F  0.42477021  0.81766458  0.94982720    -0.20060
H1082       H  0.46228544  0.83100708  0.00934780     0.17700
H1083       H  0.36270129  0.84846548  0.52321473     0.17710
F1084       F  0.40041840  0.86266471  0.58285078    -0.20050
C1085       C  0.57150539  0.05601447  0.61135829    -0.21490
C1086       C  0.57109602  0.03954091  0.64426978    -0.09530
C1087       C  0.54712418  0.03601137  0.67147012     0.29330
C1088       C  0.51410763  0.02828780  0.65928733    -0.21490
C1089       C  0.50836846  0.02980364  0.62104218    -0.09540
C1090       C  0.53823280  0.04600145  0.59717227     0.29340
F1091       F  0.53495183  0.04757080  0.55998859    -0.20060
H1092       H  0.59302825  0.06422820  0.59183377     0.17700
H1093       H  0.49264780  0.01861839  0.67916007     0.17710
F1094       F  0.55065539  0.02867572  0.70701439    -0.20050
C1095       C  0.78053415  0.26598638  0.90403881    -0.21490
C1096       C  0.79326595  0.26071074  0.93730121    -0.09530
C1097       C  0.77426934  0.22674504  0.95352855     0.29330
C1098       C  0.74328956  0.19827353  0.93630165    -0.21490
C1099       C  0.73068109  0.20314734  0.90256235    -0.09540
C1100       C  0.74935943  0.23757828  0.88686759     0.29340
F1101       F  0.73762080  0.24385465  0.85506681    -0.20060
H1102       H  0.79496570  0.29217578  0.89121395     0.17700
H1103       H  0.72976553  0.17201018  0.94889041     0.17710
F1104       F  0.78681377  0.22058281  0.98480090    -0.20050
C1105       C  0.67072518  0.01237795  0.78028648    -0.21490
C1106       C  0.68033886  0.04443472  0.76184572    -0.09530
C1107       C  0.68656836  0.04620277  0.72380134     0.29330
C1108       C  0.67433091  0.01411205  0.70394076    -0.21490
C1109       C  0.65253900  0.98053663  0.72172211    -0.09540
C1110       C  0.65484680  0.97984274  0.76026233     0.29340
F1111       F  0.63588120  0.94826020  0.77857493    -0.20060
H1112       H  0.66772101  0.01103708  0.81019214     0.17700
H1113       H  0.67480921  0.01517147  0.67390059     0.17710
F1114       F  0.69758791  0.07687685  0.70518537    -0.20050
C1115       C  0.58368306  0.95907437  0.97869546    -0.21490
C1116       C  0.59060221  0.96919536  0.51642068    -0.09530
C1117       C  0.61256248  0.00655435  0.52503670     0.29330
C1118       C  0.62316244  0.03265229  0.49725046    -0.21490
C1119       C  0.61305419  0.02225981  0.95993649    -0.09540
C1120       C  0.59507003  0.98511101  0.95087843     0.29340
F1121       F  0.58481760  0.97357284  0.91530744    -0.20060
H1122       H  0.56618224  0.93082573  0.97095911     0.17700
H1123       H  0.63623072  0.06074103  0.50548374     0.17710
F1124       F  0.62019652  0.01789174  0.56098620    -0.20050
C1125       C  0.51570460  0.93020652  0.84957969    -0.21490
C1126       C  0.53361654  0.95373482  0.82041333    -0.09530
C1127       C  0.51079432  0.95189419  0.79272257     0.29330
C1128       C  0.48235327  0.95371201  0.80565259    -0.21490
C1129       C  0.47443486  0.94888993  0.84398124    -0.09540
C1130       C  0.48799945  0.93200330  0.86490732     0.29340
F1131       F  0.48012403  0.92338171  0.90090573    -0.20060
H1132       H  0.52982073  0.92236738  0.86712502     0.17700
H1133       H  0.47044523  0.96348376  0.78740901     0.17710
F1134       F  0.52351578  0.96360653  0.75813799    -0.20050
C1135       C  0.56240528  0.11318463  0.69241026    -0.21490
C1136       C  0.53390631  0.11334369  0.70913515    -0.09530
C1137       C  0.53535717  0.11753360  0.74819922     0.29330
C1138       C  0.56304394  0.11932770  0.76957299    -0.21490
C1139       C  0.59087807  0.11784370  0.75292346    -0.09540
C1140       C  0.59031454  0.11538339  0.71375435     0.29340
F1141       F  0.61574042  0.11301412  0.69606894    -0.20060
H1142       H  0.56242328  0.11004644  0.66254677     0.17700
H1143       H  0.56191588  0.12048003  0.79955088     0.17710
F1144       F  0.50883335  0.11789959  0.76603111    -0.20050
C1145       C  0.53680094  0.12762529  0.93967299    -0.21490
C1146       C  0.56954417  0.13088235  0.94483240    -0.09530
C1147       C  0.59335159  0.15483036  0.47265781     0.29330
C1148       C  0.58119071  0.16876033  0.49917725    -0.21490
C1149       C  0.54484648  0.15643007  0.49932573    -0.09540
C1150       C  0.52520861  0.14216768  0.96618038     0.29340
F1151       F  0.49110295  0.13364890  0.96399481    -0.20060
H1152       H  0.51896642  0.11136015  0.91701821     0.17700
H1153       H  0.59746411  0.18176702  0.52382156     0.17710
F1154       F  0.62630911  0.16081376  0.47745527    -0.20050
C1155       C  0.91630123  0.46466443  0.62258680    -0.21490
C1156       C  0.88872073  0.47102902  0.62146531    -0.09530
C1157       C  0.85904081  0.44777055  0.59786407     0.29330
C1158       C  0.85819985  0.42053865  0.57527712    -0.21490
C1159       C  0.88675451  0.41546385  0.57566236    -0.09540
C1160       C  0.91530367  0.43758403  0.60059826     0.29340
F1161       F  0.94295182  0.43326345  0.60354652    -0.20060
H1162       H  0.93934399  0.48111150  0.64055767     0.17700
H1163       H  0.83586721  0.40444278  0.55640123     0.17710
F1164       F  0.83147805  0.45221390  0.59534991    -0.20050
C1165       C  0.83469658  0.43514827  0.83748805    -0.21490
C1166       C  0.84818505  0.43200321  0.80360877    -0.09530
C1167       C  0.84785039  0.40074875  0.79569222     0.29330
C1168       C  0.84400978  0.37864931  0.82473369    -0.21490
C1169       C  0.84162175  0.38892164  0.86093087    -0.09540
C1170       C  0.83116046  0.41317960  0.86651623     0.29340
F1171       F  0.82678268  0.42191616  0.90148451    -0.20060
H1172       H  0.83353479  0.45841858  0.84363459     0.17700
H1173       H  0.85071067  0.35891851  0.81993223     0.17710
F1174       F  0.85812154  0.39571880  0.76192685    -0.20050
C1175       C  0.04467309  0.56341669  0.68224782    -0.21490
C1176       C  0.04166292  0.57945572  0.71461044    -0.09530
C1177       C  0.05686386  0.57577132  0.74652677     0.29330
C1178       C  0.04966906  0.54151460  0.75211176    -0.21490
C1179       C  0.03773388  0.51667669  0.72189163    -0.09540
C1180       C  0.03871484  0.52931171  0.68589449     0.29340
F1181       F  0.03001425  0.50779713  0.65531270    -0.20060
H1182       H  0.04025075  0.57082460  0.65532688     0.17700
H1183       H  0.05061482  0.53405347  0.78025964     0.17710
F1184       F  0.06403789  0.59778361  0.77637962    -0.20050
C1185       C  0.21476094  0.71186406  0.90752463    -0.21490
C1186       C  0.22039424  0.71172466  0.94599537    -0.09530
C1187       C  0.25327322  0.73915567  0.96149530     0.29330
C1188       C  0.27798402  0.76815276  0.94009680    -0.21490
C1189       C  0.27068504  0.77054323  0.90269986    -0.09540
C1190       C  0.23982586  0.74110410  0.88586121     0.29340
F1191       F  0.23216820  0.74220653  0.84968983    -0.20060
H1192       H  0.18956667  0.69131357  0.89491283     0.17700
H1193       H  0.30203625  0.78996375  0.95359174     0.17710
F1194       F  0.26014522  0.73958654  0.99826003    -0.20050
C1195       C  0.03285108  0.62008589  0.60013301    -0.21490
C1196       C  0.04904410  0.65572574  0.58919731    -0.09530
C1197       C  0.02907927  0.67151918  0.59025080     0.29330
C1198       C  0.99367294  0.65183489  0.60308899    -0.21490
C1199       C  0.97700751  0.61535009  0.61180857    -0.09540
C1200       C  0.99692346  0.59961570  0.60905516     0.29340
F1201       F  0.98222379  0.56463438  0.61756117    -0.20060
H1202       H  0.04693558  0.60665113  0.59751588     0.17700
H1203       H  0.97954357  0.66508030  0.60679371     0.17710
F1204       F  0.04339572  0.70528452  0.57738578    -0.20050
C1205       C  0.99494213  0.60936998  0.88938730    -0.21490
C1206       C  0.02978835  0.62787068  0.87461325    -0.09530
C1207       C  0.03310333  0.63370912  0.83610696     0.29330
C1208       C  0.00246983  0.61795732  0.81286971    -0.21490
C1209       C  0.96772191  0.59512606  0.82722680    -0.09540
C1210       C  0.96435341  0.59288916  0.86606503     0.29340
F1211       F  0.93148491  0.57128376  0.88116007    -0.20060
H1212       H  0.99123280  0.60422763  0.91881370     0.17700
H1213       H  0.00622869  0.62015427  0.78311827     0.17710
F1214       F  0.06599710  0.65116943  0.82043853    -0.20050
C1215       C  0.95020341  0.49441537  0.95788986    -0.21490
C1216       C  0.96574779  0.48438740  0.98529388    -0.09530
C1217       C  0.96913196  0.49822090  0.02178597     0.29330
C1218       C  0.96621172  0.52778110  0.02677788    -0.21490
C1219       C  0.96821041  0.54584189  0.99437791    -0.09540
C1220       C  0.94651013  0.52299343  0.96557395     0.29340
F1221       F  0.93620361  0.53585421  0.93808826    -0.20060
H1222       H  0.94550824  0.48487635  0.92965165     0.17700
H1223       H  0.97459994  0.54221486  0.05304059     0.17710
F1224       F  0.98084146  0.48778569  0.05040754    -0.20050
C1225       C  0.14832139  0.56760698  0.61440563    -0.21490
C1226       C  0.11679928  0.53269643  0.61714482    -0.09530
C1227       C  0.08706071  0.52559315  0.59562048     0.29330
C1228       C  0.08813579  0.55251870  0.57411257    -0.21490
C1229       C  0.11906312  0.58785739  0.57222585    -0.09540
C1230       C  0.14954135  0.59468487  0.59237474     0.29340
F1231       F  0.18036724  0.62790142  0.59182544    -0.20060
H1232       H  0.17180541  0.57440745  0.63032944     0.17700
H1233       H  0.06426447  0.54547024  0.55876945     0.17710
F1234       F  0.05653878  0.49206379  0.59502419    -0.20050
C1235       C  0.16961612  0.61823490  0.84709482    -0.21490
C1236       C  0.15189056  0.59755841  0.87833956    -0.09530
C1237       C  0.15591873  0.56931624  0.88754939     0.29330
C1238       C  0.16987815  0.55692332  0.86137480    -0.21490
C1239       C  0.17565627  0.57033435  0.82541752    -0.09540
C1240       C  0.18323700  0.60526901  0.82106627     0.29340
F1241       F  0.19335189  0.62106745  0.78743570    -0.20060
H1242       H  0.16883827  0.64146070  0.84044783     0.17700
H1243       H  0.16712005  0.53152618  0.86628559     0.17710
F1244       F  0.14253570  0.55109088  0.91960462    -0.20050
C1245       C  0.54356904  0.77733837  0.61959182    -0.21490
C1246       C  0.53917105  0.79878185  0.59496285    -0.09530
C1247       C  0.53593786  0.79030609  0.55664512     0.29330
C1248       C  0.53850114  0.76197651  0.54349687    -0.21490
C1249       C  0.54447520  0.74155997  0.56807020    -0.09540
C1250       C  0.54627117  0.74918336  0.60649457     0.29340
F1251       F  0.55122597  0.72989986  0.63166012    -0.20060
H1252       H  0.54601731  0.78298924  0.64917973     0.17700
H1253       H  0.53672010  0.75665641  0.51387366     0.17710
F1254       F  0.53078241  0.80959484  0.53168699    -0.20050
C1255       C  0.53763751  0.51966102  0.57072644    -0.21490
C1256       C  0.55061146  0.53395702  0.53547254    -0.09530
C1257       C  0.52894226  0.51655913  0.50409287     0.29330
C1258       C  0.49375976  0.48761873  0.50845401    -0.21490
C1259       C  0.47989454  0.47568819  0.54411028    -0.09540
C1260       C  0.50196490  0.49305222  0.57532892     0.29340
F1261       F  0.48919423  0.48476644  0.61047905    -0.20060
H1262       H  0.55379158  0.53242208  0.59551376     0.17700
H1263       H  0.47724918  0.47464508  0.48399359     0.17710
F1264       F  0.54099966  0.52890136  0.46958186    -0.20050
C1265       C  0.46991317  0.53581963  0.89175444    -0.21490
C1266       C  0.43784865  0.53418390  0.88552026    -0.09530
C1267       C  0.43589228  0.56203757  0.90268134     0.29330
C1268       C  0.46445780  0.58958957  0.92528339    -0.21490
C1269       C  0.49621863  0.59067162  0.93197875    -0.09540
C1270       C  0.49830830  0.56322228  0.91412047     0.29340
F1271       F  0.52838486  0.56308617  0.91748009    -0.20060
H1272       H  0.47325667  0.51558011  0.87916630     0.17700
H1273       H  0.46138884  0.60992764  0.93806592     0.17710
F1274       F  0.40617622  0.56264852  0.89802603    -0.20050
C1275       C  0.44488310  0.58546762  0.69393130    -0.21490
C1276       C  0.41570182  0.55043250  0.68579438    -0.09530
C1277       C  0.40539114  0.53928738  0.64883344     0.29330
C1278       C  0.42945855  0.55911600  0.62089011    -0.21490
C1279       C  0.46270324  0.59031471  0.63021298    -0.09540
C1280       C  0.46862879  0.60572661  0.66590210     0.29340
F1281       F  0.50035080  0.63649494  0.67516199    -0.20060
H1282       H  0.45264542  0.59437465  0.72251678     0.17700
H1283       H  0.42441098  0.54753198  0.59309987     0.17710
F1284       F  0.37654865  0.50572396  0.64059080    -0.20050
C1285       C  0.77091004  0.53078388  0.72171675    -0.21490
C1286       C  0.79432420  0.53008209  0.74690990    -0.09530
C1287       C  0.78804213  0.53082208  0.78538831     0.29330
C1288       C  0.76012568  0.53393662  0.79789746    -0.21490
C1289       C  0.73803820  0.53661185  0.77254290    -0.09540
C1290       C  0.74320712  0.53400576  0.73417692     0.29340
F1291       F  0.72174262  0.53499140  0.70834034    -0.20060
H1292       H  0.77460454  0.52991747  0.69209728     0.17700
H1293       H  0.75663162  0.53556331  0.82745182     0.17710
F1294       F  0.80934018  0.52949402  0.81115832    -0.20050
C1295       C  0.68064241  0.65390562  0.91733362    -0.21490
C1296       C  0.66091974  0.64116885  0.88423525    -0.09530
C1297       C  0.64651137  0.65991549  0.86933638     0.29330
C1298       C  0.64296034  0.68328723  0.89200677    -0.21490
C1299       C  0.65335148  0.68713511  0.92908360    -0.09540
C1300       C  0.67847866  0.67882752  0.93907914     0.29340
F1301       F  0.69298777  0.68686584  0.97377076    -0.20060
H1302       H  0.69440536  0.64206606  0.92810572     0.17700
H1303       H  0.62598217  0.69206550  0.88274128     0.17710
F1304       F  0.63199239  0.65251862  0.83466756    -0.20050
C1305       C  0.65387359  0.61825563  0.65213634    -0.21490
C1306       C  0.64455623  0.61186940  0.68984506    -0.09530
C1307       C  0.62777811  0.62809963  0.70561031     0.29330
C1308       C  0.61577656  0.64514189  0.68311832    -0.21490
C1309       C  0.62096935  0.64740747  0.64443251    -0.09540
C1310       C  0.64326011  0.63681516  0.62997790     0.29340
F1311       F  0.65014523  0.63936957  0.59308607    -0.20060
H1312       H  0.66626136  0.60577295  0.63889591     0.17700
H1313       H  0.59826733  0.65226342  0.69525455     0.17710
F1314       F  0.61799074  0.62259499  0.74180271    -0.20050
C1315       C  0.51325566  0.47354809  0.81340173    -0.21490
C1316       C  0.52305265  0.49185676  0.77941725    -0.09530
C1317       C  0.51000881  0.47095727  0.74608352     0.29330
C1318       C  0.48457117  0.43394903  0.74836116    -0.21490
C1319       C  0.46517234  0.42287731  0.78140249    -0.09540
C1320       C  0.48597899  0.43697130  0.81376255     0.29340
F1321       F  0.47272260  0.42065719  0.84672202    -0.20060
H1322       H  0.52456560  0.48769518  0.83932493     0.17700
H1323       H  0.47209406  0.41897948  0.72280201     0.17710
F1324       F  0.51808254  0.48616414  0.71209119    -0.20050
C1325       C  0.58145795  0.44955465  0.90968913    -0.21490
C1326       C  0.57924846  0.47824303  0.89684874    -0.09530
C1327       C  0.54972313  0.47888483  0.90997291     0.29330
C1328       C  0.52328032  0.45178480  0.93317492    -0.21490
C1329       C  0.52489403  0.42280501  0.94580017    -0.09540
C1330       C  0.55489892  0.42237273  0.93352926     0.29340
F1331       F  0.55872501  0.39561916  0.94441697    -0.20060
H1332       H  0.60354765  0.44775600  0.90081783     0.17700
H1333       H  0.50103876  0.45358149  0.94114169     0.17710
F1334       F  0.54672199  0.50666610  0.90124731    -0.20050
C1335       C  0.55941253  0.39962923  0.66914231    -0.21490
C1336       C  0.55932773  0.41441263  0.63520885    -0.09530
C1337       C  0.59146200  0.44433329  0.62189369     0.29330
C1338       C  0.62041756  0.46415662  0.64614672    -0.21490
C1339       C  0.61528835  0.45545671  0.68370905    -0.09540
C1340       C  0.58861043  0.41984450  0.69320112     0.29340
F1341       F  0.58528321  0.40953749  0.72903083    -0.20060
H1342       H  0.53524276  0.37580079  0.67927289     0.17700
H1343       H  0.64233539  0.49059636  0.63777445     0.17710
F1344       F  0.59270935  0.45761514  0.58785227    -0.20050
loop_ 
_geom_bond_atom_site_label_1 
_geom_bond_atom_site_label_2 
_geom_bond_distance 
_geom_bond_site_symmetry_2 
_ccdc_geom_bond_type 
O1           Ni7   1.872       .  S
O1           C22   1.256       .  A
O2          Ni25   1.868       .  S
O2           C11   1.270       .  A
O3           Ni7   1.901       .  S
O3          Ni25   1.883       .  S
O3          Ni19   1.940       .  S
O3           H26   0.966       .  S
C4           O21   1.272       .  A
C4           O13   1.292       .  A
C4          C624   1.467       .  S
O5          Ni24   1.981       .  S
O5           C11   1.296       .  A
O6          Ni24   1.985       .  S
O6            C8   1.284       .  A
Ni7          O10   1.885       .  S
Ni7          O12   1.904       .  S
C8           O18   1.275       .  A
C8          C654   1.546       .  S
O9          Ni25   1.928       .  S
O9           C15   1.272       .  A
O10          C15   1.273       .  A
C11         C617   1.489       .  S
O12          C14   1.262       .  A
O13         Ni24   1.957       .  S
C14          O20   1.283       .  A
C14         C634   1.499       .  S
C15         C667   1.457       .  S
H16          O17   0.967       .  S
O17         Ni25   1.868       .  S
O17         Ni19   1.870       .  S
O17         Ni24   1.881       .  S
O18         Ni19   1.952       .  S
Ni19         O23   1.913       .  S
Ni19         O21   1.858       .  S
O20         Ni25   1.983       .  S
C22          O23   1.255       .  A
C22         C644   1.470       .  S
O27         Ni33   1.898       .  S
O27          C48   1.256       .  A
O28         Ni51   1.880       .  S
O28          C37   1.273       .  A
O29         Ni33   1.867       .  S
O29         Ni51   1.868       .  S
O29         Ni45   1.916       .  S
O29          H52   0.966       .  S
C30          O47   1.270       .  A
C30          O39   1.290       .  A
C30         C627   1.462       .  S
O31        Ni722   1.967   1_554  S
O31          C37   1.291       .  A
O32         Ni50   1.972       .  S
O32          C34   1.281       .  A
Ni33         O36   1.899       .  S
Ni33         O38   1.891       .  S
C34          O44   1.278       .  A
C34         C597   1.543       .  S
O35         Ni51   1.925       .  S
O35          C41   1.280       .  A
O36          C41   1.282       .  A
C37         C577   1.488       .  S
O38          C40   1.254       .  A
O39         Ni50   1.961       .  S
C40          O46   1.284       .  A
C40         C637   1.498       .  S
C41         C607   1.452       .  S
H42          O43   0.967       .  S
O43         Ni51   1.879       .  S
O43         Ni45   1.875       .  S
O43        Ni722   1.884   1_554  S
O44        Ni717   1.968       .  S
Ni45         O49   1.916       .  S
Ni45        O716   1.967   1_554  S
Ni45        O719   1.851   1_554  S
O46         Ni51   1.999       .  S
O47        Ni717   1.851       .  S
C48          O49   1.262       .  A
C48         C584   1.460       .  S
Ni50        O703   1.967       .  S
Ni50        O715   1.884       .  S
O53         Ni59   1.944       .  S
O53          C74   1.277       .  A
O54         Ni77   1.907       .  S
O54          C63   1.271       .  A
O55         Ni59   1.892       .  S
O55         Ni77   1.903       .  S
O55         Ni71   1.881       .  S
O55          H78   0.965       .  S
C56          O73   1.252       .  A
C56          O65   1.285       .  A
C56         C524   1.446       .  S
O57        Ni748   1.916       .  S
O57          C63   1.272       .  A
O58         Ni76   1.952       .  S
O58          C60   1.272       .  A
Ni59         O62   1.912       .  S
Ni59         O64   1.907       .  S
C60          O70   1.278       .  A
C60         C557   1.538       .  S
O61         Ni77   1.925       .  S
O61          C67   1.279       .  A
O62          C67   1.279       .  A
C63         C514   1.480       .  S
O64          C66   1.262       .  A
O65         Ni76   1.978       .  S
C66          O72   1.285       .  A
C66         C534   1.501       .  S
C67         C564   1.468       .  S
H68          O69   0.966       .  S
O69         Ni77   1.940       .  S
O69         Ni71   1.853       .  S
O69        Ni748   1.945       .  S
O70        Ni743   1.980   1_554  S
Ni71         O75   1.858       .  S
Ni71        O742   1.980       .  S
Ni71        O745   1.848       .  S
O72         Ni77   1.990       .  S
O73        Ni743   1.848   1_554  S
C74          O75   1.251       .  A
C74         C547   1.484   1_455  S
Ni76        O729   1.916   1_554  S
Ni76        O741   1.945   1_554  S
O79         Ni85   1.934       .  S
O79         C100   1.275   1_655  A
O80        Ni103   1.880       .  S
O80          C89   1.276       .  A
O81         Ni85   1.865       .  S
O81        Ni103   1.870       .  S
O81         Ni97   1.873       .  S
O81         H104   0.965       .  S
C82          O99   1.253       .  A
C82          O91   1.291       .  A
C82         C527   1.456       .  S
O83        Ni102   1.982       .  S
O83          C89   1.298       .  A
O84        Ni102   1.962       .  S
O84          C86   1.281       .  A
Ni85         O88   1.908       .  S
Ni85         O90   1.901       .  S
C86          O96   1.280       .  A
C86         C484   1.533       .  S
O87        Ni103   1.924       .  S
O87          C93   1.280       .  A
O88          C93   1.281       .  A
C89         C614   1.493       .  S
O90          C92   1.260       .  A
O91        Ni102   1.998       .  S
C92          O98   1.284       .  A
C92         C537   1.500       .  S
C93         C494   1.460       .  S
H94          O95   0.967       .  S
O95        Ni103   1.879       .  S
O95         Ni97   1.846       .  S
O95        Ni102   1.890       .  S
O96         Ni97   1.973       .  S
Ni97        O101   1.868       .  S
Ni97         O99   1.848       .  S
O98        Ni103   1.989       .  S
C100        O101   1.259   1_455  A
C100        C504   1.473       .  S
O105       Ni111   1.946   1_565  S
O105        C126   1.280       .  A
O106       Ni129   1.880       .  S
O106        C115   1.273       .  A
O107       Ni111   1.865       .  S
O107       Ni129   1.875       .  S
O107       Ni123   1.880       .  S
O107        H130   0.966       .  S
C108        O125   1.262       .  A
C108        O117   1.291       .  A
C108        C434   1.475       .  S
O109       Ni128   1.963       .  S
O109        C115   1.291       .  A
O110       Ni128   1.984       .  S
O110        C112   1.283       .  A
Ni111       O114   1.930       .  S
Ni111       O116   1.903       .  S
C112        O122   1.268       .  A
C112        C467   1.530       .  S
O113       Ni129   1.907       .  S
O113        C119   1.276       .  A
O114        C119   1.285       .  A
C115        C427   1.483       .  S
O116        C118   1.263       .  A
O117       Ni128   1.979       .  S
C118        O124   1.286       .  A
C118        C447   1.504       .  S
C119        C474   1.472       .  S
H120        O121   0.967       .  S
O121       Ni129   1.879       .  S
O121       Ni123   1.864       .  S
O121       Ni128   1.889       .  S
O122       Ni123   1.943       .  S
Ni123       O127   1.853       .  S
Ni123       O125   1.837       .  S
O124       Ni129   1.989       .  S
C126        O127   1.254   1_565  A
C126        C454   1.482       .  S
O131       Ni137   1.922       .  S
O131        C152   1.270   1_565  A
O132       Ni155   1.891       .  S
O132        C141   1.277       .  A
O133       Ni137   1.858       .  S
O133       Ni155   1.866       .  S
O133       Ni149   1.879       .  S
O133        H156   0.960       .  S
C134        O151   1.261       .  A
C134        O143   1.292       .  A
C134        C437   1.478       .  S
O135       Ni154   1.961       .  S
O135        C141   1.290       .  A
O136       Ni154   1.971       .  S
O136        C138   1.279       .  A
Ni137       O140   1.907       .  S
Ni137       O142   1.898       .  S
C138        O148   1.274       .  A
C138        C394   1.532       .  S
O139       Ni155   1.925       .  S
O139        C145   1.283       .  A
O140        C145   1.282       .  A
C141        C574   1.488       .  S
O142        C144   1.260       .  A
O143       Ni154   1.983       .  S
C144        O150   1.287       .  A
C144        C444   1.501       .  S
C145        C404   1.464       .  S
H146        O147   0.967       .  S
O147       Ni155   1.889       .  S
O147       Ni149   1.871       .  S
O147       Ni154   1.893       .  S
O148       Ni149   1.953       .  S
Ni149       O153   1.875       .  S
Ni149       O151   1.839       .  S
O150       Ni155   1.994       .  S
C152        O153   1.258   1_545  A
C152        C414   1.463       .  S
O157       Ni163   1.871       .  S
O157        C178   1.258       .  A
O158       Ni181   1.871       .  S
O158        C167   1.275       .  A
O159       Ni163   1.887       .  S
O159       Ni181   1.882       .  S
O159       Ni175   1.940       .  S
O159        H182   0.965       .  S
C160        O177   1.262       .  A
C160        O169   1.290       .  A
C160        C374   1.447       .  S
O161       Ni180   1.981       .  S
O161        C167   1.296       .  A
O162       Ni180   1.961       .  S
O162        C164   1.282       .  A
Ni163       O166   1.888       .  S
Ni163       O168   1.911       .  S
C164        O174   1.281       .  A
C164        C464   1.530       .  S
O165       Ni181   1.932       .  S
O165        C171   1.273       .  A
O166        C171   1.270       .  A
C167        C364   1.488       .  S
O168        C170   1.268       .  A
O169       Ni180   1.977       .  S
C170        O176   1.285       .  A
C170        C384   1.491       .  S
C171        C477   1.457   1_554  S
H172        O173   0.967       .  S
O173       Ni181   1.878       .  S
O173       Ni175   1.852       .  S
O173       Ni180   1.880       .  S
O174       Ni175   1.978       .  S
Ni175       O179   1.904       .  S
Ni175       O177   1.853       .  S
O176       Ni181   1.973       .  S
C178        O179   1.248       .  A
C178        C417   1.465       .  S
O183       Ni189   1.870       .  S
O183        C204   1.256       .  A
O184       Ni207   1.863       .  S
O184        C193   1.271       .  A
O185       Ni189   1.918       .  S
O185       Ni207   1.893       .  S
O185       Ni201   1.956       .  S
O185        H208   0.965       .  S
C186        O203   1.265       .  A
C186        O195   1.293       .  A
C186        C377   1.448       .  S
O187       Ni206   1.987       .  S
O187        C193   1.294       .  A
O188       Ni206   1.970       .  S
O188        C190   1.279       .  A
Ni189       O192   1.892       .  S
Ni189       O194   1.900       .  S
C190        O200   1.272       .  A
C190        C397   1.526       .  S
O191       Ni207   1.904       .  S
O191        C197   1.261       .  A
O192        C197   1.266       .  A
C193        C517   1.482       .  S
O194        C196   1.271       .  A
O195       Ni206   1.982       .  S
C196        O202   1.291       .  A
C196        C387   1.491       .  S
C197        C407   1.450       .  S
H198        O199   0.967       .  S
O199       Ni207   1.866       .  S
O199       Ni201   1.852       .  S
O199       Ni206   1.891       .  S
O200       Ni201   1.959       .  S
Ni201       O205   1.897       .  S
Ni201       O203   1.852       .  S
O202       Ni207   1.979       .  S
C204        O205   1.245       .  A
C204        C457   1.471       .  S
O209       Ni215   1.925       .  S
O209        C230   1.270       .  A
O210       Ni233   1.873       .  S
O210        C219   1.275       .  A
O211       Ni215   1.867       .  S
O211       Ni233   1.872       .  S
O211       Ni227   1.878       .  S
O211        H234   0.966       .  S
C212        O229   1.259       .  A
C212        O221   1.289       .  A
C212        C347   1.441       .  S
O213       Ni232   1.980       .  S
O213        C219   1.296       .  A
O214       Ni232   1.963       .  S
O214        C216   1.283       .  A
Ni215       O218   1.901       .  S
Ni215       O220   1.900       .  S
C216        O226   1.284       .  A
C216        C594   1.543       .  S
O217       Ni233   1.924       .  S
O217        C223   1.278       .  A
O218        C223   1.281       .  A
C219        C334   1.487       .  S
O220        C222   1.257       .  A
O221       Ni232   1.978       .  S
C222        O228   1.283       .  A
C222        C357   1.500       .  S
C223        C604   1.447       .  S
H224        O225   0.967       .  S
O225       Ni233   1.873       .  S
O225       Ni227   1.853       .  S
O225       Ni232   1.882       .  S
O226       Ni227   1.983       .  S
Ni227       O231   1.883       .  S
Ni227       O229   1.840       .  S
O228       Ni233   1.994       .  S
C230        O231   1.267       .  A
C230        C647   1.477       .  S
O235       Ni241   1.888       .  S
O235        C256   1.259       .  A
O236       Ni259   1.877       .  S
O236        C245   1.274       .  A
O237       Ni241   1.885       .  S
O237       Ni259   1.878       .  S
O237       Ni253   1.927       .  S
O237        H260   0.966       .  S
C238        O255   1.262       .  A
C238        O247   1.287       .  A
C238        C344   1.436       .  S
O239       Ni930   1.969   1_554  S
O239        C245   1.293       .  A
O240       Ni258   1.967       .  S
O240        C242   1.283       .  A
Ni241       O244   1.896       .  S
Ni241       O246   1.904       .  S
C242        O252   1.286       .  A
C242        C657   1.548       .  S
O243       Ni259   1.930       .  S
O243        C249   1.277       .  A
O244        C249   1.277       .  A
C245        C367   1.484       .  S
O246        C248   1.259       .  A
O247       Ni258   1.963       .  S
C248        O254   1.282       .  A
C248        C354   1.500       .  S
C249        C664   1.459       .  S
H250        O251   0.967       .  S
O251       Ni259   1.878       .  S
O251       Ni253   1.861       .  S
O251       Ni930   1.884   1_554  S
O252       Ni925   1.989       .  S
Ni253       O257   1.911       .  S
Ni253       O924   1.989   1_554  S
Ni253       O927   1.855   1_554  S
O254       Ni259   1.987       .  S
O255       Ni925   1.855       .  S
C256        O257   1.257       .  A
C256        C587   1.461       .  S
Ni258       O911   1.969       .  S
Ni258       O923   1.884       .  S
O261       Ni267   1.872       .  S
O261        C282   1.256       .  A
O262       Ni285   1.871       .  S
O262        C271   1.272       .  A
O263       Ni267   1.890       .  S
O263       Ni285   1.879       .  S
O263       Ni279   1.937       .  S
O263        H286   0.966       .  S
C264        O281   1.270       .  A
C264        O273   1.292       .  A
C264        C314   1.465       .  S
O265       Ni284   1.976       .  S
O265        C271   1.294       .  A
O266       Ni284   1.978       .  S
O266        C268   1.283       .  A
Ni267       O270   1.885       .  S
Ni267       O272   1.907       .  S
C268        O278   1.272       .  A
C268        C554   1.533       .  S
O269       Ni285   1.936       .  S
O269        C275   1.277       .  A
O270        C275   1.273       .  A
C271        C337   1.487       .  S
O272        C274   1.262       .  A
O273       Ni284   1.965       .  S
C274        O280   1.281       .  A
C274        C327   1.497       .  S
C275        C567   1.460       .  S
H276        O277   0.967       .  S
O277       Ni285   1.876       .  S
O277       Ni279   1.869       .  S
O277       Ni284   1.878       .  S
O278       Ni279   1.949       .  S
Ni279       O283   1.909       .  S
Ni279       O281   1.854       .  S
O280       Ni285   1.977       .  S
C282        O283   1.253       .  A
C282        C507   1.467       .  S
O287       Ni293   1.864       .  S
O287        C308   1.258       .  A
O288       Ni311   1.870       .  S
O288        C297   1.271       .  A
O289       Ni293   1.898       .  S
O289       Ni311   1.886       .  S
O289       Ni305   1.948       .  S
O289        H312   0.966       .  S
C290        O307   1.272       .  A
C290        O299   1.290       .  A
C290        C317   1.461       .  S
O291       Ni982   1.968       .  S
O291        C297   1.292       .  A
O292       Ni310   1.980       .  S
O292        C294   1.281       .  A
Ni293       O296   1.890       .  S
Ni293       O298   1.901       .  S
C294        O304   1.268       .  A
C294        C487   1.528       .  S
O295       Ni311   1.916       .  S
O295        C301   1.267       .  A
O296        C301   1.269       .  A
C297        C424   1.470       .  S
O298        C300   1.265       .  A
O299       Ni310   1.958       .  S
C300        O306   1.287       .  A
C300        C324   1.496       .  S
C301        C497   1.454       .  S
H302        O303   0.967       .  S
O303       Ni311   1.872       .  S
O303       Ni305   1.866       .  S
O303       Ni982   1.887       .  S
O304       Ni977   1.936   1_554  S
Ni305       O309   1.907       .  S
Ni305       O976   1.936       .  S
Ni305       O979   1.858       .  S
O306       Ni311   1.981       .  S
O307       Ni977   1.858   1_554  S
C308        O309   1.249       .  A
C308        C544   1.471       .  S
Ni310       O963   1.968   1_554  S
Ni310       O975   1.887   1_554  S
C313        C314   1.395       .  A
C313        C318   1.389       .  A
C313        H320   1.083       .  S
C314        C315   1.415   1_455  A
C315        C316   1.390       .  A
C315        F322   1.358       .  S
C316        C317   1.394       .  A
C316        H321   1.083       .  S
C317        C318   1.412   1_655  A
C318        F319   1.358       .  S
C323        C324   1.410   1_455  A
C323        C328   1.411       .  A
C323        H330   1.084       .  S
C324        C325   1.409       .  A
C325        C326   1.413   1_655  A
C325        F332   1.357       .  S
C326        C327   1.410       .  A
C326        H331   1.084       .  S
C327        C328   1.408       .  A
C328        F329   1.357       .  S
C333        C334   1.412       .  A
C333        C338   1.400       .  A
C333        H340   1.083       .  S
C334        C335   1.404       .  A
C335        C336   1.399       .  A
C335        F342   1.357       .  S
C336        C337   1.411       .  A
C336        H341   1.083       .  S
C337        C338   1.404       .  A
C338        F339   1.357       .  S
C343        C344   1.393       .  A
C343        C348   1.378       .  A
C343        H350   1.084       .  S
C344        C345   1.408       .  A
C345        C346   1.399       .  A
C345        F352   1.357       .  S
C346        C347   1.400       .  A
C346        H351   1.083       .  S
C347        C348   1.405       .  A
C348        F349   1.358       .  S
C353        C354   1.409       .  A
C353        C358   1.411       .  A
C353        H360   1.082       .  S
C354        C355   1.409       .  A
C355        C356   1.414       .  A
C355        F362   1.357       .  S
C356        C357   1.411       .  A
C356        H361   1.082       .  S
C357        C358   1.410       .  A
C358        F359   1.357       .  S
C363        C364   1.411       .  A
C363        C368   1.397       .  A
C363        H370   1.083       .  S
C364        C365   1.407       .  A
C365        C366   1.401       .  A
C365        F372   1.357       .  S
C366        C367   1.410       .  A
C366        H371   1.083       .  S
C367        C368   1.404       .  A
C368        F369   1.358       .  S
C373        C374   1.397   1_565  A
C373        C378   1.377       .  A
C373        H380   1.085   1_565  S
C374        C375   1.403   1_545  A
C375        C376   1.405       .  A
C375        F382   1.357   1_565  S
C376        C377   1.407       .  A
C376        H381   1.083       .  S
C377        C378   1.399       .  A
C378        F379   1.353       .  S
C383        C384   1.409   1_565  A
C383       C1060   1.411       .  A
C383        H390   1.084       .  S
C384       C1057   1.408   1_554  A
C385        C386   1.408   1_545  A
C385       C1056   1.408       .  A
C385        F392   1.358       .  S
C386        C387   1.409       .  A
C386        H391   1.084       .  S
C387        C388   1.408       .  A
C388       C1055   1.411       .  A
C388       F1061   1.357       .  S
F389       C1060   1.357       .  S
C393        C394   1.417       .  A
C393        C398   1.431       .  A
C393        H400   1.082       .  S
C394        C395   1.416       .  A
C395        C396   1.411       .  A
C395        F402   1.356       .  S
C396        C397   1.407       .  A
C396        H401   1.079       .  S
C397        C398   1.417       .  A
C398        F399   1.356       .  S
C403        C408   1.391       .  A
C403       C1076   1.402       .  A
C403        H410   1.083       .  S
C404        C405   1.407       .  A
C404       C1075   1.402       .  A
C405       C1078   1.392       .  A
C405        F412   1.358       .  S
C406        C407   1.398       .  A
C406       C1077   1.392       .  A
C406       H1083   1.084       .  S
C407        C408   1.403       .  A
C408        F409   1.358       .  S
H411       C1078   1.084       .  S
C413        C414   1.399       .  A
C413        C418   1.394       .  A
C413        H420   1.084       .  S
C414        C415   1.397       .  A
C415        C416   1.390       .  A
C415        F422   1.358       .  S
C416        C417   1.412       .  A
C416        H421   1.083       .  S
C417        C418   1.414       .  A
C418        F419   1.355       .  S
C423        C424   1.406       .  A
C423        C428   1.400       .  A
C423        H430   1.084       .  S
C424        C425   1.399       .  A
C425        C426   1.397       .  A
C425        F432   1.358       .  S
C426        C427   1.411       .  A
C426        H431   1.083       .  S
C427        C428   1.407       .  A
C428        F429   1.357       .  S
C433        C434   1.419       .  A
C433        C438   1.397   1_545  A
C433        H440   1.084       .  S
C434        C435   1.393       .  A
C435        C436   1.398       .  A
C435        F442   1.357       .  S
C436        C437   1.419   1_545  A
C436        H441   1.084       .  S
C437        C438   1.395       .  A
C438        F439   1.357       .  S
C443        C448   1.411       .  A
C443       C1116   1.405       .  A
C443        H450   1.083       .  S
C444        C445   1.416   1_565  A
C444       C1115   1.405   1_554  A
C445        C446   1.416   1_554  A
C445        F452   1.356       .  S
C446       C1119   1.406       .  A
C446        H451   1.083   1_556  S
C447        C448   1.414   1_545  A
C447       C1118   1.406       .  A
C448        F449   1.356       .  S
C453        C454   1.397       .  A
C453        C458   1.398       .  A
C453        H460   1.083       .  S
C454        C455   1.398       .  A
C455        C456   1.398       .  A
C455        F462   1.357       .  S
C456        C457   1.415       .  A
C456        H461   1.082       .  S
C457        C458   1.423       .  A
C458        F459   1.349       .  S
C463        C464   1.413       .  A
C463        C468   1.424       .  A
C463        H470   1.083       .  S
C464        C465   1.414       .  A
C465        C466   1.424       .  A
C465        F472   1.357       .  S
C466        C467   1.415       .  A
C466        H471   1.083       .  S
C467        C468   1.413       .  A
C468        F469   1.357       .  S
C473        C474   1.404       .  A
C473        C478   1.396       .  A
C473        H480   1.083       .  S
C474       C1147   1.412       .  A
C475        C476   1.394       .  A
C475       C1146   1.412       .  A
C475        F482   1.358       .  S
C476        C477   1.402       .  A
C476        H481   1.084   1_556  S
C477       C1150   1.402       .  A
C478       C1149   1.402       .  A
C478        F479   1.357       .  S
C483        C484   1.412       .  A
C483        C488   1.410       .  A
C483        H490   1.083       .  S
C484        C485   1.421       .  A
C485        C486   1.431       .  A
C485        F492   1.356       .  S
C486        C487   1.416       .  A
C486        H491   1.083       .  S
C487        C488   1.413       .  A
C488        F489   1.358       .  S
C493        C494   1.400       .  A
C493        C498   1.392       .  A
C493        H500   1.084       .  S
C494        C495   1.406       .  A
C495        C496   1.392       .  A
C495        F502   1.358       .  S
C496        C497   1.398       .  A
C496        H501   1.084       .  S
C497        C498   1.405       .  A
C498        F499   1.358       .  S
C503        C504   1.402       .  A
C503        C508   1.396       .  A
C503        H510   1.083       .  S
C504        C505   1.395       .  A
C505        C506   1.391       .  A
C505        F512   1.356       .  S
C506        C507   1.415       .  A
C506        H511   1.081       .  S
C507        C508   1.413       .  A
C508        F509   1.355       .  S
C513        C514   1.410       .  A
C513        C518   1.407       .  A
C513        H520   1.080       .  S
C514        C515   1.403       .  A
C515        C516   1.392       .  A
C515        F522   1.358       .  S
C516        C517   1.407       .  A
C516        H521   1.082       .  S
C517        C518   1.405       .  A
C518        F519   1.357       .  S
C523        C524   1.395       .  A
C523        C528   1.383   1_455  A
C523        H530   1.085       .  S
C524        C525   1.409       .  A
C525        C526   1.405   1_455  A
C525        F532   1.357       .  S
C526        C527   1.403       .  A
C526        H531   1.083       .  S
C527        C528   1.407       .  A
C528        F529   1.354       .  S
C533        C534   1.411   1_655  A
C533        C538   1.413       .  A
C533        H540   1.082       .  S
C534        C535   1.408       .  A
C535        C536   1.414       .  A
C535        F542   1.357       .  S
C536        C537   1.411   1_455  A
C536        H541   1.083       .  S
C537        C538   1.407       .  A
C538        F539   1.356       .  S
C543        C544   1.421       .  A
C543        C548   1.392       .  A
C543        H550   1.071       .  S
C544        C545   1.415       .  A
C545        C546   1.400       .  A
C545        F552   1.357       .  S
C546        C547   1.403       .  A
C546        H551   1.079       .  S
C547        C548   1.391       .  A
C548        F549   1.354       .  S
C553        C554   1.414       .  A
C553        C558   1.429       .  A
C553        H560   1.083       .  S
C554        C555   1.416       .  A
C555        C556   1.416       .  A
C555        F562   1.358       .  S
C556        C557   1.412       .  A
C556        H561   1.083       .  S
C557        C558   1.422       .  A
C558        F559   1.356       .  S
C563        C564   1.403       .  A
C563        C568   1.397       .  A
C563        H570   1.083       .  S
C564        C565   1.408       .  A
C565        C566   1.394       .  A
C565        F572   1.358       .  S
C566        C567   1.398       .  A
C566        H571   1.084       .  S
C567        C568   1.407       .  A
C568        F569   1.357       .  S
C573        C574   1.404       .  A
C573        C578   1.397       .  A
C573        H580   1.083       .  S
C574        C575   1.412       .  A
C575        C576   1.401       .  A
C575        F582   1.357       .  S
C576        C577   1.405       .  A
C576        H581   1.083       .  S
C577        C578   1.412       .  A
C578        F579   1.358       .  S
C583        C584   1.404       .  A
C583        C588   1.378       .  A
C583        H590   1.084       .  S
C584        C585   1.402       .  A
C585        C586   1.390       .  A
C585        F592   1.354   1_554  S
C586        C587   1.405       .  A
C586        H591   1.082   1_554  S
C587        C588   1.404       .  A
C588        F589   1.359       .  S
C593        C594   1.415       .  A
C593        C598   1.419       .  A
C593        H600   1.083       .  S
C594        C595   1.421       .  A
C595        C596   1.429       .  A
C595        F602   1.356       .  S
C596        C597   1.417       .  A
C596        H601   1.083       .  S
C597        C598   1.419       .  A
C598        F599   1.356       .  S
C603        C604   1.401       .  A
C603        C608   1.390       .  A
C603        H610   1.084       .  S
C604        C605   1.400       .  A
C605        C606   1.389       .  A
C605        F612   1.358       .  S
C606        C607   1.401       .  A
C606        H611   1.084       .  S
C607        C608   1.402       .  A
C608        F609   1.358       .  S
C613        C614   1.402       .  A
C613        C618   1.397       .  A
C613        H620   1.083       .  S
C614        C615   1.418       .  A
C615        C616   1.404       .  A
C615        F622   1.357       .  S
C616        C617   1.401       .  A
C616        H621   1.083       .  S
C617        C618   1.415       .  A
C618        F619   1.358       .  S
C623        C624   1.398       .  A
C623        C628   1.393       .  A
C623        H630   1.083       .  S
C624        C625   1.417       .  A
C625        C626   1.388       .  A
C625        F632   1.358       .  S
C626        C627   1.392       .  A
C626        H631   1.084       .  S
C627        C628   1.413       .  A
C628        F629   1.358       .  S
C633        C634   1.407       .  A
C633        C638   1.414       .  A
C633        H640   1.083       .  S
C634        C635   1.411       .  A
C635        C636   1.411       .  A
C635        F642   1.358       .  S
C636        C637   1.409       .  A
C636        H641   1.083       .  S
C637        C638   1.413       .  A
C638        F639   1.356       .  S
C643        C644   1.411       .  A
C643        C648   1.395       .  A
C643        H650   1.075       .  S
C644        C645   1.419       .  A
C645        C646   1.396       .  A
C645        F652   1.358       .  S
C646        C647   1.399       .  A
C646        H651   1.084       .  S
C647        C648   1.399       .  A
C648        F649   1.357       .  S
C653        C654   1.418       .  A
C653        C658   1.435       .  A
C653        H660   1.082       .  S
C654        C655   1.418       .  A
C655        C656   1.417       .  A
C655        F662   1.356       .  S
C656        C657   1.413       .  A
C656        H661   1.080       .  S
C657        C658   1.423       .  A
C658        F659   1.356       .  S
C663        C664   1.399       .  A
C663        C668   1.397       .  A
C663        H670   1.083       .  S
C664        C665   1.406       .  A
C665        C666   1.393       .  A
C665        F672   1.358       .  S
C666        C667   1.397       .  A
C666        H671   1.084       .  S
C667        C668   1.408       .  A
C668        F669   1.358       .  S
O673       Ni679   1.872       .  S
O673        C694   1.256       .  A
O674       Ni697   1.868       .  S
O674        C683   1.270       .  A
O675       Ni679   1.901       .  S
O675       Ni697   1.883       .  S
O675       Ni691   1.940       .  S
O675        H698   0.966       .  S
C676        O693   1.272       .  A
C676        O685   1.292       .  A
C676       C1296   1.467       .  S
O677       Ni696   1.981       .  S
O677        C683   1.296       .  A
O678       Ni696   1.985       .  S
O678        C680   1.284       .  A
Ni679       O682   1.885       .  S
Ni679       O684   1.904       .  S
C680        O690   1.275       .  A
C680       C1326   1.546       .  S
O681       Ni697   1.928       .  S
O681        C687   1.272       .  A
O682        C687   1.273       .  A
C683       C1289   1.489       .  S
O684        C686   1.262       .  A
O685       Ni696   1.957       .  S
C686        O692   1.283       .  A
C686       C1306   1.499       .  S
C687       C1339   1.457       .  S
H688        O689   0.967       .  S
O689       Ni697   1.868       .  S
O689       Ni691   1.870       .  S
O689       Ni696   1.881       .  S
O690       Ni691   1.952       .  S
Ni691       O695   1.913       .  S
Ni691       O693   1.858       .  S
O692       Ni697   1.983       .  S
C694        O695   1.255       .  A
C694       C1316   1.470       .  S
O699       Ni705   1.898       .  S
O699        C720   1.256       .  A
O700       Ni723   1.880       .  S
O700        C709   1.273       .  A
O701       Ni705   1.867       .  S
O701       Ni723   1.868       .  S
O701       Ni717   1.916       .  S
O701        H724   0.966       .  S
C702        O719   1.270       .  A
C702        O711   1.290       .  A
C702       C1299   1.462       .  S
O703        C709   1.291       .  A
O704       Ni722   1.972       .  S
O704        C706   1.281       .  A
Ni705       O708   1.899       .  S
Ni705       O710   1.891       .  S
C706        O716   1.278       .  A
C706       C1269   1.543       .  S
O707       Ni723   1.925       .  S
O707        C713   1.280       .  A
O708        C713   1.282       .  A
C709       C1249   1.488       .  S
O710        C712   1.254       .  A
O711       Ni722   1.961       .  S
C712        O718   1.284       .  A
C712       C1309   1.498       .  S
C713       C1279   1.452       .  S
H714        O715   0.967       .  S
O715       Ni723   1.879       .  S
O715       Ni717   1.875       .  S
Ni717       O721   1.916       .  S
O718       Ni723   1.999       .  S
C720        O721   1.262       .  A
C720       C1256   1.460       .  S
O725       Ni731   1.944       .  S
O725        C746   1.277       .  A
O726       Ni749   1.907       .  S
O726        C735   1.271       .  A
O727       Ni731   1.892       .  S
O727       Ni749   1.903       .  S
O727       Ni743   1.882       .  S
O727        H750   0.965       .  S
C728        O745   1.252       .  A
C728        O737   1.285       .  A
C728       C1196   1.446       .  S
O729        C735   1.272       .  A
O730       Ni748   1.952       .  S
O730        C732   1.272       .  A
Ni731       O734   1.912       .  S
Ni731       O736   1.907       .  S
C732        O742   1.278       .  A
C732       C1229   1.538       .  S
O733       Ni749   1.926       .  S
O733        C739   1.279       .  A
O734        C739   1.279       .  A
C735       C1186   1.480       .  S
O736        C738   1.262       .  A
O737       Ni748   1.978       .  S
C738        O744   1.285       .  A
C738       C1206   1.501       .  S
C739       C1236   1.468       .  S
H740        O741   0.966       .  S
O741       Ni749   1.940       .  S
O741       Ni743   1.853       .  S
Ni743       O747   1.858   1_556  S
O744       Ni749   1.990       .  S
C746        O747   1.251   1_556  A
C746       C1219   1.484   1_455  S
O751       Ni757   1.934       .  S
O751        C772   1.275   1_655  A
O752       Ni775   1.880       .  S
O752        C761   1.276       .  A
O753       Ni757   1.865       .  S
O753       Ni775   1.870       .  S
O753       Ni769   1.873       .  S
O753        H776   0.965       .  S
C754        O771   1.253       .  A
C754        O763   1.291       .  A
C754       C1199   1.456       .  S
O755       Ni774   1.982       .  S
O755        C761   1.298       .  A
O756       Ni774   1.962       .  S
O756        C758   1.281       .  A
Ni757       O760   1.908       .  S
Ni757       O762   1.901       .  S
C758        O768   1.280       .  A
C758       C1156   1.533       .  S
O759       Ni775   1.924       .  S
O759        C765   1.280       .  A
O760        C765   1.281       .  A
C761       C1286   1.493       .  S
O762        C764   1.260       .  A
O763       Ni774   1.998       .  S
C764        O770   1.284       .  A
C764       C1209   1.500       .  S
C765       C1166   1.460       .  S
H766        O767   0.967       .  S
O767       Ni775   1.880       .  S
O767       Ni769   1.846       .  S
O767       Ni774   1.890       .  S
O768       Ni769   1.973       .  S
Ni769       O773   1.867       .  S
Ni769       O771   1.848       .  S
O770       Ni775   1.989       .  S
C772        O773   1.259   1_455  A
C772       C1176   1.473       .  S
O777       Ni783   1.946   1_565  S
O777        C798   1.280       .  A
O778       Ni801   1.880       .  S
O778        C787   1.273       .  A
O779       Ni783   1.865       .  S
O779       Ni801   1.875       .  S
O779       Ni795   1.880       .  S
O779        H802   0.966       .  S
C780        O797   1.262       .  A
C780        O789   1.291       .  A
C780       C1106   1.475       .  S
O781       Ni800   1.963       .  S
O781        C787   1.291       .  A
O782       Ni800   1.984       .  S
O782        C784   1.283       .  A
Ni783       O786   1.930       .  S
Ni783       O788   1.903       .  S
C784        O794   1.268       .  A
C784       C1139   1.529       .  S
O785       Ni801   1.907       .  S
O785        C791   1.276       .  A
O786        C791   1.285       .  A
C787       C1099   1.483       .  S
O788        C790   1.263       .  A
O789       Ni800   1.979       .  S
C790        O796   1.286       .  A
C790       C1119   1.504       .  S
C791       C1146   1.472       .  S
H792        O793   0.967       .  S
O793       Ni801   1.879       .  S
O793       Ni795   1.865       .  S
O793       Ni800   1.889       .  S
O794       Ni795   1.943       .  S
Ni795       O799   1.853       .  S
Ni795       O797   1.837       .  S
O796       Ni801   1.989       .  S
C798        O799   1.254   1_565  A
C798       C1126   1.482       .  S
O803       Ni809   1.922       .  S
O803        C824   1.270   1_565  A
O804       Ni827   1.891       .  S
O804        C813   1.277       .  A
O805       Ni809   1.858       .  S
O805       Ni827   1.866       .  S
O805       Ni821   1.879       .  S
O805        H828   0.960       .  S
C806        O823   1.261       .  A
C806        O815   1.292       .  A
C806       C1109   1.478       .  S
O807       Ni826   1.961       .  S
O807        C813   1.290       .  A
O808       Ni826   1.971       .  S
O808        C810   1.279       .  A
Ni809       O812   1.907       .  S
Ni809       O814   1.898       .  S
C810        O820   1.274       .  A
C810       C1066   1.532       .  S
O811       Ni827   1.925       .  S
O811        C817   1.283       .  A
O812        C817   1.282       .  A
C813       C1246   1.488       .  S
O814        C816   1.260       .  A
O815       Ni826   1.983       .  S
C816        O822   1.287       .  A
C816       C1116   1.501       .  S
C817       C1076   1.464       .  S
H818        O819   0.967       .  S
O819       Ni827   1.889       .  S
O819       Ni821   1.871       .  S
O819       Ni826   1.893       .  S
O820       Ni821   1.953       .  S
Ni821       O825   1.875       .  S
Ni821       O823   1.839       .  S
O822       Ni827   1.994       .  S
C824        O825   1.258   1_545  A
C824       C1086   1.463       .  S
O829       Ni835   1.871       .  S
O829        C850   1.258       .  A
O830       Ni853   1.871       .  S
O830        C839   1.275       .  A
O831       Ni835   1.887       .  S
O831       Ni853   1.882       .  S
O831       Ni847   1.940       .  S
O831        H854   0.965       .  S
C832        O849   1.262       .  A
C832        O841   1.290       .  A
C832       C1046   1.448       .  S
O833       Ni852   1.981       .  S
O833        C839   1.296       .  A
O834       Ni852   1.961       .  S
O834        C836   1.282       .  A
Ni835       O838   1.888       .  S
Ni835       O840   1.911       .  S
C836        O846   1.281       .  A
C836       C1136   1.530       .  S
O837       Ni853   1.932       .  S
O837        C843   1.273       .  A
O838        C843   1.270       .  A
C839       C1036   1.488       .  S
O840        C842   1.268       .  A
O841       Ni852   1.977       .  S
C842        O848   1.285       .  A
C842       C1056   1.491       .  S
C843       C1149   1.457       .  S
H844        O845   0.967       .  S
O845       Ni853   1.878       .  S
O845       Ni847   1.852       .  S
O845       Ni852   1.880       .  S
O846       Ni847   1.978       .  S
Ni847       O851   1.904       .  S
Ni847       O849   1.853       .  S
O848       Ni853   1.973       .  S
C850        O851   1.248       .  A
C850       C1089   1.465       .  S
O855       Ni861   1.870       .  S
O855        C876   1.256       .  A
O856       Ni879   1.863       .  S
O856        C865   1.271       .  A
O857       Ni861   1.918       .  S
O857       Ni879   1.893       .  S
O857       Ni873   1.956       .  S
O857        H880   0.965       .  S
C858        O875   1.265       .  A
C858        O867   1.293       .  A
C858       C1049   1.448       .  S
O859       Ni878   1.987       .  S
O859        C865   1.294       .  A
O860       Ni878   1.970       .  S
O860        C862   1.279       .  A
Ni861       O864   1.892       .  S
Ni861       O866   1.900       .  S
C862        O872   1.272       .  A
C862       C1069   1.526       .  S
O863       Ni879   1.904       .  S
O863        C869   1.261       .  A
O864        C869   1.266       .  A
C865       C1189   1.482       .  S
O866        C868   1.271       .  A
O867       Ni878   1.982       .  S
C868        O874   1.291       .  A
C868       C1059   1.491       .  S
C869       C1079   1.450       .  S
H870        O871   0.967       .  S
O871       Ni879   1.866       .  S
O871       Ni873   1.852       .  S
O871       Ni878   1.891       .  S
O872       Ni873   1.959       .  S
Ni873       O877   1.897       .  S
Ni873       O875   1.852       .  S
O874       Ni879   1.979       .  S
C876        O877   1.245       .  A
C876       C1129   1.471       .  S
O881       Ni887   1.925       .  S
O881        C902   1.270       .  A
O882       Ni905   1.873       .  S
O882        C891   1.275       .  A
O883       Ni887   1.867       .  S
O883       Ni905   1.872       .  S
O883       Ni899   1.878       .  S
O883        H906   0.966       .  S
C884        O901   1.259       .  A
C884        O893   1.289       .  A
C884       C1019   1.441       .  S
O885       Ni904   1.980       .  S
O885        C891   1.296       .  A
O886       Ni904   1.963       .  S
O886        C888   1.283       .  A
Ni887       O890   1.901       .  S
Ni887       O892   1.900       .  S
C888        O898   1.284       .  A
C888       C1266   1.543       .  S
O889       Ni905   1.924       .  S
O889        C895   1.278       .  A
O890        C895   1.281       .  A
C891       C1006   1.487       .  S
O892        C894   1.257       .  A
O893       Ni904   1.978       .  S
C894        O900   1.283       .  A
C894       C1029   1.500       .  S
C895       C1276   1.447       .  S
H896        O897   0.967       .  S
O897       Ni905   1.873       .  S
O897       Ni899   1.853       .  S
O897       Ni904   1.882       .  S
O898       Ni899   1.983       .  S
Ni899       O903   1.883       .  S
Ni899       O901   1.840       .  S
O900       Ni905   1.994       .  S
C902        O903   1.267       .  A
C902       C1319   1.477       .  S
O907       Ni913   1.888       .  S
O907        C928   1.259       .  A
O908       Ni931   1.877       .  S
O908        C917   1.274       .  A
O909       Ni913   1.885       .  S
O909       Ni931   1.878       .  S
O909       Ni925   1.927       .  S
O909        H932   0.966       .  S
C910        O927   1.262       .  A
C910        O919   1.287       .  A
C910       C1016   1.436       .  S
O911        C917   1.293       .  A
O912       Ni930   1.967       .  S
O912        C914   1.283       .  A
Ni913       O916   1.896       .  S
Ni913       O918   1.904       .  S
C914        O924   1.286       .  A
C914       C1329   1.548       .  S
O915       Ni931   1.930       .  S
O915        C921   1.277       .  A
O916        C921   1.277       .  A
C917       C1039   1.484       .  S
O918        C920   1.259       .  A
O919       Ni930   1.963       .  S
C920        O926   1.282       .  A
C920       C1026   1.500       .  S
C921       C1336   1.459       .  S
H922        O923   0.967       .  S
O923       Ni931   1.878       .  S
O923       Ni925   1.861       .  S
Ni925       O929   1.911       .  S
O926       Ni931   1.987       .  S
C928        O929   1.257       .  A
C928       C1259   1.461       .  S
O933       Ni939   1.872       .  S
O933        C954   1.256       .  A
O934       Ni957   1.871       .  S
O934        C943   1.272       .  A
O935       Ni939   1.890       .  S
O935       Ni957   1.879       .  S
O935       Ni951   1.937       .  S
O935        H958   0.966       .  S
C936        O953   1.270       .  A
C936        O945   1.292       .  A
C936        C986   1.465       .  S
O937       Ni956   1.976       .  S
O937        C943   1.294       .  A
O938       Ni956   1.978       .  S
O938        C940   1.283       .  A
Ni939       O942   1.885       .  S
Ni939       O944   1.907       .  S
C940        O950   1.272       .  A
C940       C1226   1.533       .  S
O941       Ni957   1.936       .  S
O941        C947   1.277       .  A
O942        C947   1.273       .  A
C943       C1009   1.487       .  S
O944        C946   1.262       .  A
O945       Ni956   1.965       .  S
C946        O952   1.281       .  A
C946        C999   1.497       .  S
C947       C1239   1.460       .  S
H948        O949   0.967       .  S
O949       Ni957   1.876       .  S
O949       Ni951   1.869       .  S
O949       Ni956   1.878       .  S
O950       Ni951   1.949       .  S
Ni951       O955   1.909       .  S
Ni951       O953   1.854       .  S
O952       Ni957   1.977       .  S
C954        O955   1.253       .  A
C954       C1179   1.467       .  S
O959       Ni965   1.865       .  S
O959        C980   1.258       .  A
O960       Ni983   1.870       .  S
O960        C969   1.271       .  A
O961       Ni965   1.898       .  S
O961       Ni983   1.885       .  S
O961       Ni977   1.948       .  S
O961        H984   0.966       .  S
C962        O979   1.272       .  A
C962        O971   1.290       .  A
C962        C989   1.461       .  S
O963        C969   1.292       .  A
O964       Ni982   1.980       .  S
O964        C966   1.281       .  A
Ni965       O968   1.891       .  S
Ni965       O970   1.901       .  S
C966        O976   1.268       .  A
C966       C1159   1.528       .  S
O967       Ni983   1.916       .  S
O967        C973   1.267       .  A
O968        C973   1.269       .  A
C969       C1096   1.470       .  S
O970        C972   1.265       .  A
O971       Ni982   1.958       .  S
C972        O978   1.287       .  A
C972        C996   1.496       .  S
C973       C1169   1.454       .  S
H974        O975   0.967       .  S
O975       Ni983   1.872       .  S
O975       Ni977   1.866       .  S
Ni977       O981   1.907       .  S
O978       Ni983   1.981       .  S
C980        O981   1.249       .  A
C980       C1216   1.471       .  S
C985        C986   1.395       .  A
C985        C990   1.389       .  A
C985        H992   1.083       .  S
C986        C987   1.415   1_455  A
C987        C988   1.390       .  A
C987        F994   1.358       .  S
C988        C989   1.394       .  A
C988        H993   1.083       .  S
C989        C990   1.412   1_655  A
C990        F991   1.358       .  S
C995        C996   1.410   1_455  A
C995       C1000   1.411       .  A
C995       H1002   1.084       .  S
C996        C997   1.409       .  A
C997        C998   1.412   1_655  A
C997       F1004   1.357       .  S
C998        C999   1.410       .  A
C998       H1003   1.084       .  S
C999       C1000   1.408       .  A
C1000      F1001   1.357       .  S
C1005      C1006   1.411       .  A
C1005      C1010   1.400       .  A
C1005      H1012   1.083       .  S
C1006      C1007   1.404       .  A
C1007      C1008   1.399       .  A
C1007      F1014   1.357       .  S
C1008      C1009   1.411       .  A
C1008      H1013   1.083       .  S
C1009      C1010   1.404       .  A
C1010      F1011   1.357       .  S
C1015      C1016   1.393       .  A
C1015      C1020   1.378       .  A
C1015      H1022   1.084       .  S
C1016      C1017   1.408       .  A
C1017      C1018   1.399       .  A
C1017      F1024   1.357       .  S
C1018      C1019   1.400       .  A
C1018      H1023   1.083       .  S
C1019      C1020   1.405       .  A
C1020      F1021   1.358       .  S
C1025      C1026   1.409       .  A
C1025      C1030   1.411       .  A
C1025      H1032   1.082       .  S
C1026      C1027   1.409       .  A
C1027      C1028   1.414       .  A
C1027      F1034   1.357       .  S
C1028      C1029   1.411       .  A
C1028      H1033   1.082       .  S
C1029      C1030   1.410       .  A
C1030      F1031   1.357       .  S
C1035      C1036   1.411       .  A
C1035      C1040   1.397       .  A
C1035      H1042   1.083       .  S
C1036      C1037   1.407       .  A
C1037      C1038   1.401       .  A
C1037      F1044   1.357       .  S
C1038      C1039   1.410       .  A
C1038      H1043   1.083       .  S
C1039      C1040   1.404       .  A
C1040      F1041   1.358       .  S
C1045      C1046   1.397   1_565  A
C1045      C1050   1.377       .  A
C1045      H1052   1.085   1_565  S
C1046      C1047   1.403   1_545  A
C1047      C1048   1.405       .  A
C1047      F1054   1.357   1_565  S
C1048      C1049   1.408       .  A
C1048      H1053   1.083       .  S
C1049      C1050   1.399       .  A
C1050      F1051   1.353       .  S
C1055      C1056   1.409   1_565  A
C1055      H1062   1.084       .  S
C1057      C1058   1.408   1_545  A
C1057      F1064   1.358       .  S
C1058      C1059   1.409       .  A
C1058      H1063   1.084       .  S
C1059      C1060   1.408   1_556  A
C1065      C1066   1.417       .  A
C1065      C1070   1.431       .  A
C1065      H1072   1.082       .  S
C1066      C1067   1.416       .  A
C1067      C1068   1.411       .  A
C1067      F1074   1.356       .  S
C1068      C1069   1.407       .  A
C1068      H1073   1.079       .  S
C1069      C1070   1.417       .  A
C1070      F1071   1.356       .  S
C1075      C1080   1.391   1_554  A
C1075      H1082   1.083       .  S
C1076      C1077   1.407       .  A
C1077      F1084   1.358       .  S
C1078      C1079   1.398   1_554  A
C1079      C1080   1.403       .  A
C1080      F1081   1.358       .  S
C1085      C1086   1.399       .  A
C1085      C1090   1.394       .  A
C1085      H1092   1.084       .  S
C1086      C1087   1.397       .  A
C1087      C1088   1.390       .  A
C1087      F1094   1.358       .  S
C1088      C1089   1.412       .  A
C1088      H1093   1.083       .  S
C1089      C1090   1.414       .  A
C1090      F1091   1.355       .  S
C1095      C1096   1.406       .  A
C1095      C1100   1.400       .  A
C1095      H1102   1.084       .  S
C1096      C1097   1.399       .  A
C1097      C1098   1.397       .  A
C1097      F1104   1.358       .  S
C1098      C1099   1.411       .  A
C1098      H1103   1.083       .  S
C1099      C1100   1.407       .  A
C1100      F1101   1.357       .  S
C1105      C1106   1.419       .  A
C1105      C1110   1.397   1_545  A
C1105      H1112   1.084       .  S
C1106      C1107   1.393       .  A
C1107      C1108   1.398       .  A
C1107      F1114   1.357       .  S
C1108      C1109   1.419   1_545  A
C1108      H1113   1.084       .  S
C1109      C1110   1.395       .  A
C1110      F1111   1.357       .  S
C1115      C1120   1.411       .  A
C1115      H1122   1.083       .  S
C1116      C1117   1.416   1_565  A
C1117      C1118   1.416       .  A
C1117      F1124   1.356       .  S
C1118      H1123   1.083       .  S
C1119      C1120   1.414   1_545  A
C1120      F1121   1.356       .  S
C1125      C1126   1.397       .  A
C1125      C1130   1.398       .  A
C1125      H1132   1.083       .  S
C1126      C1127   1.398       .  A
C1127      C1128   1.398       .  A
C1127      F1134   1.357       .  S
C1128      C1129   1.415       .  A
C1128      H1133   1.082       .  S
C1129      C1130   1.423       .  A
C1130      F1131   1.349       .  S
C1135      C1136   1.413       .  A
C1135      C1140   1.424       .  A
C1135      H1142   1.083       .  S
C1136      C1137   1.414       .  A
C1137      C1138   1.424       .  A
C1137      F1144   1.357       .  S
C1138      C1139   1.415       .  A
C1138      H1143   1.083       .  S
C1139      C1140   1.413       .  A
C1140      F1141   1.357       .  S
C1145      C1146   1.404       .  A
C1145      C1150   1.396       .  A
C1145      H1152   1.083       .  S
C1147      C1148   1.394       .  A
C1147      F1154   1.358       .  S
C1148      C1149   1.402       .  A
C1148      H1153   1.084       .  S
C1150      F1151   1.357       .  S
C1155      C1156   1.412       .  A
C1155      C1160   1.410       .  A
C1155      H1162   1.083       .  S
C1156      C1157   1.421       .  A
C1157      C1158   1.431       .  A
C1157      F1164   1.356       .  S
C1158      C1159   1.416       .  A
C1158      H1163   1.083       .  S
C1159      C1160   1.413       .  A
C1160      F1161   1.358       .  S
C1165      C1166   1.400       .  A
C1165      C1170   1.392       .  A
C1165      H1172   1.084       .  S
C1166      C1167   1.406       .  A
C1167      C1168   1.392       .  A
C1167      F1174   1.358       .  S
C1168      C1169   1.398       .  A
C1168      H1173   1.084       .  S
C1169      C1170   1.405       .  A
C1170      F1171   1.358       .  S
C1175      C1176   1.402       .  A
C1175      C1180   1.396       .  A
C1175      H1182   1.083       .  S
C1176      C1177   1.395       .  A
C1177      C1178   1.391       .  A
C1177      F1184   1.356       .  S
C1178      C1179   1.415       .  A
C1178      H1183   1.081       .  S
C1179      C1180   1.413       .  A
C1180      F1181   1.355       .  S
C1185      C1186   1.410       .  A
C1185      C1190   1.407       .  A
C1185      H1192   1.080       .  S
C1186      C1187   1.403       .  A
C1187      C1188   1.392       .  A
C1187      F1194   1.358       .  S
C1188      C1189   1.407       .  A
C1188      H1193   1.082       .  S
C1189      C1190   1.405       .  A
C1190      F1191   1.357       .  S
C1195      C1196   1.395       .  A
C1195      C1200   1.383   1_455  A
C1195      H1202   1.085       .  S
C1196      C1197   1.409       .  A
C1197      C1198   1.405   1_455  A
C1197      F1204   1.357       .  S
C1198      C1199   1.403       .  A
C1198      H1203   1.083       .  S
C1199      C1200   1.407       .  A
C1200      F1201   1.354       .  S
C1205      C1206   1.411   1_655  A
C1205      C1210   1.413       .  A
C1205      H1212   1.082       .  S
C1206      C1207   1.408       .  A
C1207      C1208   1.414       .  A
C1207      F1214   1.357       .  S
C1208      C1209   1.411   1_455  A
C1208      H1213   1.083       .  S
C1209      C1210   1.407       .  A
C1210      F1211   1.356       .  S
C1215      C1216   1.421       .  A
C1215      C1220   1.392       .  A
C1215      H1222   1.071       .  S
C1216      C1217   1.415   1_556  A
C1217      C1218   1.400       .  A
C1217      F1224   1.357       .  S
C1218      C1219   1.403   1_554  A
C1218      H1223   1.079       .  S
C1219      C1220   1.391       .  A
C1220      F1221   1.354       .  S
C1225      C1226   1.414       .  A
C1225      C1230   1.429       .  A
C1225      H1232   1.083       .  S
C1226      C1227   1.416       .  A
C1227      C1228   1.416       .  A
C1227      F1234   1.358       .  S
C1228      C1229   1.412       .  A
C1228      H1233   1.083       .  S
C1229      C1230   1.422       .  A
C1230      F1231   1.356       .  S
C1235      C1236   1.403       .  A
C1235      C1240   1.397       .  A
C1235      H1242   1.083       .  S
C1236      C1237   1.408       .  A
C1237      C1238   1.394       .  A
C1237      F1244   1.358       .  S
C1238      C1239   1.398       .  A
C1238      H1243   1.084       .  S
C1239      C1240   1.407       .  A
C1240      F1241   1.357       .  S
C1245      C1246   1.404       .  A
C1245      C1250   1.397       .  A
C1245      H1252   1.083       .  S
C1246      C1247   1.412       .  A
C1247      C1248   1.401       .  A
C1247      F1254   1.357       .  S
C1248      C1249   1.405       .  A
C1248      H1253   1.083       .  S
C1249      C1250   1.412       .  A
C1250      F1251   1.358       .  S
C1255      C1256   1.404       .  A
C1255      C1260   1.378       .  A
C1255      H1262   1.084       .  S
C1256      C1257   1.402       .  A
C1257      C1258   1.390       .  A
C1257      F1264   1.354       .  S
C1258      C1259   1.405       .  A
C1258      H1263   1.082       .  S
C1259      C1260   1.404       .  A
C1260      F1261   1.359       .  S
C1265      C1266   1.415       .  A
C1265      C1270   1.419       .  A
C1265      H1272   1.083       .  S
C1266      C1267   1.421       .  A
C1267      C1268   1.429       .  A
C1267      F1274   1.356       .  S
C1268      C1269   1.417       .  A
C1268      H1273   1.083       .  S
C1269      C1270   1.419       .  A
C1270      F1271   1.356       .  S
C1275      C1276   1.401       .  A
C1275      C1280   1.390       .  A
C1275      H1282   1.084       .  S
C1276      C1277   1.400       .  A
C1277      C1278   1.389       .  A
C1277      F1284   1.358       .  S
C1278      C1279   1.401       .  A
C1278      H1283   1.084       .  S
C1279      C1280   1.402       .  A
C1280      F1281   1.358       .  S
C1285      C1286   1.402       .  A
C1285      C1290   1.397       .  A
C1285      H1292   1.083       .  S
C1286      C1287   1.418       .  A
C1287      C1288   1.404       .  A
C1287      F1294   1.357       .  S
C1288      C1289   1.401       .  A
C1288      H1293   1.083       .  S
C1289      C1290   1.415       .  A
C1290      F1291   1.358       .  S
C1295      C1296   1.398       .  A
C1295      C1300   1.393       .  A
C1295      H1302   1.083       .  S
C1296      C1297   1.417       .  A
C1297      C1298   1.388       .  A
C1297      F1304   1.358       .  S
C1298      C1299   1.392       .  A
C1298      H1303   1.084       .  S
C1299      C1300   1.413       .  A
C1300      F1301   1.358       .  S
C1305      C1306   1.407       .  A
C1305      C1310   1.414       .  A
C1305      H1312   1.083       .  S
C1306      C1307   1.411       .  A
C1307      C1308   1.411       .  A
C1307      F1314   1.358       .  S
C1308      C1309   1.409       .  A
C1308      H1313   1.083       .  S
C1309      C1310   1.413       .  A
C1310      F1311   1.356       .  S
C1315      C1316   1.411       .  A
C1315      C1320   1.395       .  A
C1315      H1322   1.075       .  S
C1316      C1317   1.419       .  A
C1317      C1318   1.396       .  A
C1317      F1324   1.358       .  S
C1318      C1319   1.399       .  A
C1318      H1323   1.084       .  S
C1319      C1320   1.399       .  A
C1320      F1321   1.357       .  S
C1325      C1326   1.418       .  A
C1325      C1330   1.435       .  A
C1325      H1332   1.082       .  S
C1326      C1327   1.418       .  A
C1327      C1328   1.417       .  A
C1327      F1334   1.356       .  S
C1328      C1329   1.413       .  A
C1328      H1333   1.080       .  S
C1329      C1330   1.423       .  A
C1330      F1331   1.356       .  S
C1335      C1336   1.399       .  A
C1335      C1340   1.397       .  A
C1335      H1342   1.083       .  S
C1336      C1337   1.406       .  A
C1337      C1338   1.393       .  A
C1337      F1344   1.358       .  S
C1338      C1339   1.397       .  A
C1338      H1343   1.084       .  S
C1339      C1340   1.408       .  A
C1340      F1341   1.358       .  S
