geometry optimzed in LAMMPS
_audit_creation_date              2020-12-01 
_audit_creation_method            'lammps2cif' 
_symmetry_space_group_name_H-M    'P1' 
_symmetry_Int_Tables_number       1 
_symmetry_cell_setting            triclinic 
loop_ 
_symmetry_equiv_pos_as_xyz 
  x,y,z 
_cell_length_a                    56.27184609 
_cell_length_b                    56.004778849536216 
_cell_length_c                    22.61211868144552 
_cell_angle_alpha                 90.45561394975081 
_cell_angle_beta                  89.83808165158499 
_cell_angle_gamma                 120.3292471952862 
loop_ 
_atom_site_label 
_atom_site_type_symbol 
_atom_site_fract_x 
_atom_site_fract_y 
_atom_site_fract_z 
_atom_site_charge 
O1          O  0.06753268  0.52149891  0.09611353    -0.77600
C2          C  0.01400502  0.50071661  0.95199116     0.83400
O3          O  0.01916209  0.42965192  0.08812918    -0.78700
O4          O  0.03516888  0.44542266  0.36939126    -0.80200
O5          O  0.11163456  0.54148768  0.44215390    -0.80000
O6          O  0.10997267  0.52858827  0.08739549    -0.78600
Zn7        Zn  0.04363704  0.49508485  0.03774765     1.55700
O8          O  0.08692209  0.51571559  0.36578998    -0.80000
Cd9        Cd  0.10432678  0.50994140  0.50435465     1.59700
Cd10       Cd  0.04683001  0.44438223  0.51087261     1.59600
O11         O  0.11944940  0.48156431  0.48533180    -0.80000
O12         O  0.06169122  0.48075532  0.99464628    -1.90500
Cd13       Cd  0.05410546  0.48389808  0.41003018     1.59900
O14         O  0.08093974  0.43928726  0.49406845    -0.80000
O15         O  0.02103661  0.48954939  0.41579143    -0.78600
C16         C  0.00452893  0.44086175  0.09941244     0.83900
C17         C  0.09227463  0.53326441  0.11320837     0.83600
O18         O  0.03225458  0.51591471  0.98866987    -0.77600
C19         C  0.10178290  0.53931882  0.39011088     0.84400
O20         O  0.01085587  0.46430465  0.07781223    -0.77700
C21         C  0.10687474  0.45472292  0.48244827     0.84500
C22         C  0.01343638  0.42768804  0.39595336     0.84800
O23         O  0.01404356  0.42426702  0.45125900    -0.80100
O24         O  0.18420845  0.40714735  0.30771920    -0.77600
C25         C  0.15459814  0.33347035  0.40420406     0.83400
O26         O  0.08589297  0.34753151  0.37669247    -0.78700
O27         O  0.14514820  0.37154600  0.05376427    -0.80200
O28         O  0.19941521  0.43967975  0.51789473    -0.80000
O29         O  0.20544885  0.44429709  0.36825617    -0.78600
Zn30       Zn  0.14969239  0.37996925  0.34729559     1.55700
O31         O  0.20727589  0.40907215  0.98532577    -0.80000
Cd32       Cd  0.17557116  0.43539398  0.43851716     1.59700
Cd33       Cd  0.10992709  0.37873927  0.44095504     1.59600
O34         O  0.14782480  0.45177044  0.45491877    -0.80000
O35         O  0.14894863  0.39508240  0.42211327    -1.90500
Cd36       Cd  0.16446412  0.38050770  0.47776046     1.59900
O37         O  0.10576067  0.41304140  0.45898155    -0.80000
O38         O  0.15708858  0.34281181  0.45602762    -0.78600
C39         C  0.09167927  0.34517508  0.32298027     0.83900
C40         C  0.20550241  0.42963767  0.32376737     0.83600
O41         O  0.15328634  0.34649991  0.35998618    -0.77600
C42         C  0.21139137  0.42732246  0.02354551     0.84400
O43         O  0.11410149  0.36391675  0.29999700    -0.77700
C44         C  0.12142640  0.43942901  0.46424540     0.84500
C45         C  0.11955316  0.35384656  0.05335668     0.84800
O46         O  0.10252209  0.35464474  0.51448484    -0.80100
O47         O  0.03699169  0.59322566  0.39105575    -0.77600
C48         C  0.01150501  0.51414530  0.31549347     0.83400
O49         O  0.11285566  0.57596975  0.32014125    -0.78700
O50         O  0.08156129  0.53551375  0.21028998    -0.80200
O51         O  0.01877834  0.57511362  0.17586136    -0.80000
O52         O  0.01423685  0.59259895  0.31130786    -0.78600
Zn53       Zn  0.05025535  0.57052416  0.34621253     1.55700
O54         O  0.02051755  0.53588315  0.17326251    -0.80000
Cd55       Cd  0.04409678  0.59843741  0.24441030     1.59700
Cd56       Cd  0.10328190  0.59520232  0.24864312     1.59600
O57         O  0.07641793  0.63790249  0.21974712    -0.80000
O58         O  0.06399012  0.58019935  0.26838792    -1.90500
Cd59       Cd  0.05077306  0.54297575  0.23489372     1.59900
O60         O  0.11649809  0.63776420  0.22850008    -0.80000
O61         O  0.03231991  0.51402409  0.29603071    -0.78600
C62         C  0.09855492  0.56177085  0.36512865     0.83900
C63         C  0.01504018  0.59030411  0.36752122     0.83600
O64         O  0.01341992  0.53636516  0.33361486    -0.77600
C65         C  0.01014712  0.55052782  0.15687227     0.84400
O66         O  0.07662231  0.56117551  0.38274688    -0.77700
C67         C  0.10287336  0.64999329  0.21535925     0.84500
C68         C  0.09678236  0.54937425  0.16810762     0.84800
O69         O  0.10722504  0.57564584  0.16923266    -0.80100
O70         O  0.14223944  0.79381581  0.07832226    -0.77600
C71         C  0.20127982  0.76738952  0.04177897     0.83400
O72         O  0.08590096  0.73715350  0.10376325    -0.78700
O73         O  0.14342852  0.69186344  0.18091846    -0.80200
O74         O  0.21059955  0.79462074  0.20338008    -0.80000
O75         O  0.18302663  0.81558373  0.11838247    -0.78600
Zn76       Zn  0.14438497  0.75949674  0.06457546     1.55700
O77         O  0.19769852  0.75377711  0.23896023    -0.80000
Cd78       Cd  0.17202857  0.78625547  0.17831128     1.59700
Cd79       Cd  0.11021486  0.73059338  0.16751215     1.59600
O80         O  0.14792500  0.79232304  0.23969988    -0.80000
O81         O  0.14856596  0.74952873  0.14248743    -1.90500
Cd82       Cd  0.17298152  0.73449987  0.16017289     1.59900
O83         O  0.10746946  0.75235844  0.23783328    -0.80000
O84         O  0.20109670  0.75312965  0.08676711    -0.78600
C85         C  0.08880006  0.74010652  0.04766660     0.83900
C86         C  0.16246327  0.81577322  0.09792721     0.83600
O87         O  0.18011206  0.76857076  0.02518415    -0.77600
C88         C  0.21297354  0.78012088  0.24261835     0.84400
O89         O  0.10750073  0.73714473  0.02226708    -0.77700
C90         C  0.12297272  0.77702244  0.25670056     0.84500
C91         C  0.11748497  0.67933500  0.19435043     0.84800
O92         O  0.10293913  0.69114052  0.19046037    -0.80100
O93         O  0.65517318  0.79477129  0.34606492    -0.77600
C94         C  0.65309429  0.74030979  0.31416758     0.83400
O95         O  0.55615993  0.75593383  0.35959243    -0.78700
O96         O  0.58928931  0.69143751  0.45951445    -0.80200
O97         O  0.64612514  0.79426641  0.00568517    -0.80000
O98         O  0.63536829  0.81626123  0.38328325    -0.78600
Zn99       Zn  0.61819100  0.76015694  0.33353443     1.55700
O100        O  0.64664062  0.75356497  0.50592744    -0.80000
Cd101      Cd  0.61670585  0.78715341  0.44408928     1.59700
Cd102      Cd  0.56432174  0.73554243  0.43082922     1.59600
O103        O  0.58553816  0.79460594  0.96909201    -0.80000
O104        O  0.60349858  0.74990516  0.41082790    -1.90500
Cd105      Cd  0.62248803  0.73088685  0.43572454     1.59900
O106        O  0.56063815  0.75529812  0.51063481    -0.80000
O107        O  0.65347710  0.73757906  0.37037435    -0.78600
C108        C  0.57054160  0.76964210  0.31423818     0.83900
C109        C  0.65658460  0.81673967  0.36462859     0.83600
O110        O  0.63108944  0.73693515  0.29009451    -0.77600
C111        C  0.65572254  0.77917574  0.02368659     0.84400
O112        O  0.59185923  0.76918372  0.29589309    -0.77700
C113        C  0.57025222  0.78021406  0.01075063     0.84500
C114        C  0.56279360  0.67964517  0.46319576     0.84800
O115        O  0.54969022  0.69237484  0.44967321    -0.80100
O116        O  0.46265390  0.53903104  0.07595434    -0.77600
C117        C  0.49647446  0.50889439  0.96197488     0.83400
O118        O  0.56714206  0.58827068  0.09970484    -0.78700
O119        O  0.55084826  0.58059838  0.37724400    -0.80200
O120        O  0.45858356  0.56823762  0.45214549    -0.80000
O121        O  0.47414674  0.58182586  0.09879472    -0.78600
Zn122      Zn  0.50039338  0.54795680  0.05346552     1.55700
O123        O  0.48483434  0.57276895  0.37558814    -0.80000
Cd124      Cd  0.49264362  0.59432744  0.01178318     1.59700
Cd125      Cd  0.55639925  0.60041290  0.01951718     1.59600
O126        O  0.52101349  0.63619536  0.48826844    -0.80000
O127        O  0.51668461  0.57795611  0.00260979    -1.90500
Cd128      Cd  0.51260118  0.56494678  0.41772258     1.59900
O129        O  0.56271783  0.63955486  0.49727216    -0.80000
O130        O  0.49805353  0.52319175  0.41712433    -0.78600
C131        C  0.55164107  0.56620783  0.12894661     0.83900
C132        C  0.46057595  0.55575866  0.11023037     0.83600
O133        O  0.49631044  0.51585293  0.01487437    -0.77600
C134        C  0.46109920  0.56176353  0.39905616     0.84400
O135        O  0.52582253  0.55180890  0.11891997    -0.77700
C136        C  0.54769305  0.65013775  0.48421546     0.84500
C137        C  0.57081382  0.58062138  0.40393272     0.84800
O138        O  0.57519416  0.58662247  0.45862776    -0.80100
O139        O  0.55063097  0.96734055  0.37874112    -0.77600
C140        C  0.50321973  0.98649539  0.28071896     0.83400
O141        O  0.46110182  0.88309215  0.29926955    -0.78700
O142        O  0.46128922  0.92042268  0.19432752    -0.80200
O143        O  0.56584045  0.97594094  0.16454829    -0.80000
O144        O  0.58050396  0.98260383  0.30453563    -0.78600
Zn145      Zn  0.51460013  0.94436055  0.33301298     1.55700
O146        O  0.52441793  0.95783025  0.12308871    -0.80000
Cd147      Cd  0.55779956  0.95148292  0.23835830     1.59700
Cd148      Cd  0.49188321  0.89280225  0.23230126     1.59600
O149        O  0.56276669  0.91779141  0.21970445    -0.80000
O150        O  0.51836532  0.93255705  0.25546862    -1.90500
Cd151      Cd  0.50304067  0.94644913  0.20017556     1.59900
O152        O  0.52084033  0.87843018  0.21772147    -0.80000
O153        O  0.50886669  0.98173209  0.22971995    -0.78600
C154        C  0.46328008  0.89453180  0.35004102     0.83900
C155        C  0.57369481  0.98552214  0.35708787     0.83600
O156        O  0.50115756  0.97161819  0.32478516    -0.77600
C157        C  0.55001350  0.97571603  0.12423613     0.84400
O158        O  0.48670025  0.90990600  0.37391965    -0.77700
C159        C  0.54744164  0.89148282  0.21180036     0.84500
C160        C  0.45499597  0.90259286  0.15388535     0.84800
O161        O  0.46777002  0.88901899  0.15309215    -0.80100
O162        O  0.65587017  0.86369253  0.10227681    -0.77600
C163        C  0.65211385  0.82813536  0.23105353     0.83400
O164        O  0.55698657  0.80035028  0.09228867    -0.78700
O165        O  0.58430300  0.81624471  0.31371894    -0.80200
O166        O  0.65476211  0.90817042  0.22650811    -0.80000
O167        O  0.64647263  0.89746378  0.08880637    -0.78600
Zn168      Zn  0.62297021  0.83320284  0.14314190     1.55700
O169        O  0.63255814  0.88788784  0.30800187    -0.80000
Cd170      Cd  0.62226841  0.88738994  0.16647522     1.59700
Cd171      Cd  0.56496188  0.82201150  0.17613572     1.59600
O172        O  0.58815558  0.89239514  0.18185278    -0.80000
O173        O  0.60507059  0.84795096  0.18494913    -1.90500
Cd174      Cd  0.61547935  0.84925771  0.26877230     1.59900
O175        O  0.55002139  0.85001676  0.19356799    -0.80000
O176        O  0.64967037  0.84551545  0.26274086    -0.78600
C177        C  0.57461051  0.79556437  0.06659422     0.83900
C178        C  0.66154883  0.88666132  0.07899680     0.83600
O179        O  0.63380729  0.81268367  0.19467193    -0.77600
C180        C  0.65473474  0.90511845  0.28211545     0.84400
O181        O  0.59920878  0.80678845  0.08446421    -0.77700
C182        C  0.56237160  0.87678082  0.19444832     0.84500
C183        C  0.56842590  0.79277706  0.28964654     0.84800
O184        O  0.55798979  0.79080542  0.23835340    -0.80100
O185        O  0.48360208  0.96769139  0.98277829    -0.77600
C186        C  0.43446140  0.99463594  0.08939590     0.83400
O187        O  0.42041934  0.88819065  0.07286572    -0.78700
O188        O  0.35783875  0.91622392  0.47948667    -0.80200
O189        O  0.40709037  0.96006055  0.35900230    -0.80000
O190        O  0.46754622  0.98165040  0.40357645    -0.78600
Zn191      Zn  0.45072872  0.95596103  0.03003279     1.55700
O192        O  0.40804114  0.98170997  0.44164287    -0.80000
Cd193      Cd  0.43070092  0.94540429  0.39606407     1.59700
Cd194      Cd  0.40554210  0.89636611  0.98999387     1.59600
O195        O  0.43758445  0.91679910  0.35187189    -0.80000
O196        O  0.41930895  0.93674553  0.98478316    -1.90500
Cd197      Cd  0.39596656  0.95302939  0.00065756     1.59900
O198        O  0.42946435  0.88640826  0.42406663    -0.80000
O199        O  0.40863873  0.97836979  0.07889444    -0.78600
C200        C  0.44155252  0.90683927  0.10167020     0.83900
C201        C  0.48769387  0.98585150  0.94537960     0.83600
O202        O  0.45232108  0.98929912  0.06826847    -0.77600
C203        C  0.41113947  0.98186790  0.38606372     0.84400
O204        O  0.45276463  0.93209412  0.08800144    -0.77700
C205        C  0.44060944  0.89767093  0.37467058     0.84500
C206        C  0.34789292  0.89070366  0.46353845     0.84800
O207        O  0.36239930  0.87857409  0.46616968    -0.80100
O208        O  0.21195179  0.80679036  0.31736944    -0.77600
C209        C  0.17821223  0.82606067  0.45948542     0.83400
O210        O  0.25536617  0.89659520  0.32569295    -0.78700
O211        O  0.24841856  0.87974375  0.04602226    -0.80200
O212        O  0.23388411  0.78868411  0.47057861    -0.80000
O213        O  0.24712698  0.79947186  0.32456437    -0.78600
Zn214      Zn  0.21406512  0.83192452  0.37737503     1.55700
O215        O  0.23810456  0.81269038  0.04267231    -0.80000
Cd216      Cd  0.26076955  0.82063252  0.41069451     1.59700
Cd217      Cd  0.26976637  0.88647685  0.40324123     1.59600
O218        O  0.30405553  0.84921528  0.43523273    -0.80000
O219        O  0.24690366  0.84670728  0.41873708    -1.90500
Cd220      Cd  0.23556869  0.84738716  0.50037237     1.59900
O221        O  0.30896992  0.89184604  0.42517180    -0.80000
O222        O  0.19828368  0.84467578  0.48865228    -0.78600
C223        C  0.22934810  0.88574850  0.31619663     0.83900
C224        C  0.22487695  0.79528922  0.29873179     0.83600
O225        O  0.18138123  0.80989678  0.42598795    -0.77600
C226        C  0.22763572  0.78934520  0.01667633     0.84400
O227        O  0.21193226  0.86270571  0.33910911    -0.77700
C228        C  0.31866334  0.87606515  0.43967978     0.84500
C229        C  0.24854284  0.90012531  0.02100061     0.84800
O230        O  0.25749641  0.90704795  0.46272460    -0.80100
O231        O  0.22076962  0.35311228  0.07877393    -0.77600
C232        C  0.17816016  0.34207858  0.23733287     0.83400
O233        O  0.24808673  0.43945518  0.09655378    -0.78700
O234        O  0.24130575  0.41993802  0.31976495    -0.80200
O235        O  0.25834277  0.34541342  0.23050330    -0.80000
O236        O  0.26052310  0.35438414  0.09033121    -0.78600
Zn237      Zn  0.21606496  0.37604348  0.14092533     1.55700
O238        O  0.25511838  0.36511857  0.31314455    -0.80000
Cd239      Cd  0.27016727  0.37753039  0.17145712     1.59700
Cd240      Cd  0.26175598  0.43380276  0.18226832     1.59600
O241        O  0.30919301  0.41103329  0.19085918    -0.80000
O242        O  0.24628268  0.39320952  0.19085635    -1.90500
Cd243      Cd  0.23552002  0.38453686  0.27611382     1.59900
O244        O  0.30496491  0.44891890  0.20326973    -0.80000
O245        O  0.19422679  0.35452750  0.28055419    -0.78600
C246        C  0.22273761  0.42452224  0.08020538     0.83900
C247        C  0.23738338  0.34496895  0.06375196     0.83600
O248        O  0.18487486  0.34908417  0.18432354    -0.77600
C249        C  0.25337822  0.34434144  0.28556123     0.84400
O250        O  0.20645677  0.40249017  0.10725550    -0.77700
C251        C  0.31934906  0.43668495  0.20512093     0.84500
C252        C  0.23126279  0.43358504  0.29655385     0.84800
O253        O  0.23758607  0.44218885  0.24338639    -0.80100
O254        O  0.46358694  0.47379898  0.33322403    -0.77600
C255        C  0.43983264  0.53544615  0.37183618     0.83400
O256        O  0.40477291  0.41756102  0.31397849    -0.78700
O257        O  0.36160837  0.47740033  0.23994378    -0.80200
O258        O  0.46508484  0.54210810  0.20344556    -0.80000
O259        O  0.48776481  0.51391101  0.29009480    -0.78600
Zn260      Zn  0.43066621  0.47763245  0.34846195     1.55700
O261        O  0.42265876  0.52885018  0.17694117    -0.80000
Cd262      Cd  0.45650127  0.50421428  0.23465749     1.59700
Cd263      Cd  0.39970029  0.44248754  0.24838827     1.59600
O264        O  0.46042925  0.47950835  0.17266886    -0.80000
O265        O  0.41993810  0.48132762  0.27193647    -1.90500
Cd266      Cd  0.40484866  0.50588612  0.25696260     1.59900
O267        O  0.42100534  0.43866183  0.17791793    -0.80000
O268        O  0.42458763  0.53508926  0.32871382    -0.78600
C269        C  0.40843186  0.42122508  0.36998496     0.83900
C270        C  0.48627169  0.49314084  0.31465736     0.83600
O271        O  0.44170358  0.51436140  0.38615642    -0.77600
C272        C  0.44864924  0.54382139  0.16830551     0.84400
O273        O  0.40792529  0.44169627  0.39411919    -0.77700
C274        C  0.44514923  0.45426045  0.15715765     0.84500
C275        C  0.34888710  0.45147837  0.22500999     0.84800
O276        O  0.36070578  0.43683528  0.22639249    -0.80100
O277        O  0.90361380  0.15473281  0.45397893    -0.77600
C278        C  0.84789231  0.16909561  0.02428279     0.83400
O279        O  0.92955084  0.24976366  0.03072956    -0.78700
O280        O  0.87442963  0.20375299  0.14800969    -0.80200
O281        O  0.90364609  0.13212887  0.16813079    -0.80000
O282        O  0.90893045  0.13208422  0.02400154    -0.78600
Zn283      Zn  0.90391875  0.18932634  0.99563544     1.55700
O284        O  0.87017788  0.14196601  0.17109807    -0.80000
Cd285      Cd  0.92656736  0.16059959  0.09632810     1.59700
Cd286      Cd  0.93628939  0.22685850  0.09686078     1.59600
O287        O  0.97015921  0.18803498  0.11521047    -0.80000
O288        O  0.91457946  0.18776103  0.07615709    -1.90500
Cd289      Cd  0.87927896  0.17235765  0.11343625     1.59900
O290        O  0.97439823  0.23056624  0.11630334    -0.80000
O291        O  0.85144877  0.15157538  0.05068834    -0.78600
C292        C  0.92458687  0.24434047  0.47829155     0.83900
C293        C  0.89877301  0.13209334  0.47791616     0.83600
O294        O  0.86828508  0.18970598  0.00111689    -0.77600
C295        C  0.87996859  0.12701036  0.18688519     0.84400
O296        O  0.92703700  0.22511506  0.45364888    -0.77700
C297        C  0.98459960  0.21464339  0.12286358     0.84500
C298        C  0.89243381  0.22615901  0.17284595     0.84800
O299        O  0.91821571  0.23527995  0.16763401    -0.80100
O300        O  0.13149721  0.31740295  0.26725384    -0.77600
C301        C  0.07584570  0.31840580  0.28987651     0.83400
O302        O  0.08957443  0.22005321  0.23508724    -0.78700
O303        O  0.02566465  0.25538307  0.14816641    -0.80200
O304        O  0.12659387  0.32679602  0.12118870    -0.80000
O305        O  0.14820730  0.29630879  0.21630257    -0.78600
Zn306      Zn  0.09482615  0.28188889  0.26995556     1.55700
O307        O  0.08326929  0.31407712  0.09765013    -0.80000
Cd308      Cd  0.12047819  0.29004043  0.15406367     1.59700
Cd309      Cd  0.07136688  0.23096834  0.16494800     1.59600
O310        O  0.12827254  0.26865837  0.09414075    -0.80000
O311        O  0.08463206  0.27022973  0.18887840    -1.90500
Cd312      Cd  0.06444505  0.28861783  0.16827713     1.59900
O313        O  0.09341874  0.22558147  0.09085627    -0.80000
O314        O  0.07196614  0.31882656  0.23438653    -0.78600
C315        C  0.10265758  0.23273473  0.28253606     0.83900
C316        C  0.15194516  0.31720353  0.24478058     0.83600
O317        O  0.07282366  0.29633524  0.31323076    -0.77600
C318        C  0.10912569  0.33088359  0.09426965     0.84400
O319        O  0.10159171  0.25318226  0.30527297    -0.77700
C320        C  0.11762223  0.24417139  0.07437935     0.84500
C321        C  0.01438723  0.22906665  0.14038842     0.84800
O322        O  0.02784468  0.21601884  0.14684854    -0.80100
O323        O  0.20656087  0.32048703  0.98758901    -0.77600
C324        C  0.15639611  0.30877995  0.39642904     0.83400
O325        O  0.12939213  0.21861325  0.49123866    -0.78700
O326        O  0.14918769  0.24676045  0.28171700    -0.80200
O327        O  0.24438350  0.31364074  0.36588123    -0.80000
O328        O  0.23797736  0.30349105  0.50602775    -0.78600
Zn329      Zn  0.17564508  0.28209853  0.46657049     1.55700
O330        O  0.21677303  0.29878819  0.28759054    -0.80000
Cd331      Cd  0.22373586  0.28026308  0.42394730     1.59700
Cd332      Cd  0.15548716  0.22414734  0.41457904     1.59600
O333        O  0.22565480  0.24465063  0.40155292    -0.80000
O334        O  0.18387296  0.26458790  0.40859006    -1.90500
Cd335      Cd  0.17992535  0.27781613  0.33158128     1.59900
O336        O  0.18236940  0.20712910  0.39519675    -0.80000
O337        O  0.16950575  0.30708169  0.35231559    -0.78600
C338        C  0.13620225  0.24058291  0.03243087     0.83900
C339        C  0.22696724  0.32309949  0.01667966     0.83600
O340        O  0.14880878  0.29179635  0.43875077    -0.77600
C341        C  0.23844458  0.31712549  0.31357110     0.84400
O342        O  0.16062478  0.26081479  0.03223295    -0.77700
C343        C  0.20899867  0.21877682  0.38976799     0.84500
C344        C  0.12592662  0.23004129  0.30420536     0.84800
O345        O  0.12430478  0.21779883  0.35268365    -0.80100
O346        O  0.30353115  0.18241876  0.23928845    -0.77600
C347        C  0.31801788  0.15905579  0.39996434     0.83400
O348        O  0.22078082  0.13197163  0.25551495    -0.78700
O349        O  0.24103146  0.14189173  0.47729867    -0.80200
O350        O  0.31332328  0.23341376  0.38735232    -0.80000
O351        O  0.30258488  0.22165027  0.24845562    -0.78600
Zn352      Zn  0.28067990  0.15647261  0.30490812     1.55700
O353        O  0.29103753  0.21316557  0.46922754    -0.80000
Cd354      Cd  0.28066742  0.21191034  0.32961164     1.59700
Cd355      Cd  0.22505335  0.14850895  0.34311386     1.59600
O356        O  0.24783203  0.21822537  0.35071112    -0.80000
O357        O  0.26547670  0.17304862  0.35129316    -1.90500
Cd358      Cd  0.27492948  0.17352580  0.43555680     1.59900
O359        O  0.21004146  0.17638142  0.36647333    -0.80000
O360        O  0.30799172  0.16742441  0.43991458    -0.78600
C361        C  0.23347127  0.11879546  0.24382335     0.83900
C362        C  0.31190263  0.20732409  0.22373272     0.83600
O363        O  0.30780394  0.15215153  0.34873096    -0.77600
C364        C  0.31302011  0.23071773  0.44308386     0.84400
O365        O  0.25071453  0.11927682  0.28015221    -0.77700
C366        C  0.22258616  0.20317040  0.36741708     0.88100
C367        C  0.22828068  0.11817097  0.45240765     0.84800
O368        O  0.21824618  0.11548534  0.40046051    -0.80100
O369        O  0.92249760  0.69679337  0.21292758    -0.77600
C370        C  0.84263676  0.66969997  0.28605156     0.83400
O371        O  0.90461734  0.77223325  0.27888072    -0.78700
O372        O  0.86558571  0.74076674  0.40118718    -0.80200
O373        O  0.90809013  0.68190140  0.42937762    -0.80000
O374        O  0.92162223  0.67389478  0.29237899    -0.78600
Zn375      Zn  0.89907937  0.70925154  0.25669721     1.55700
O376        O  0.86770500  0.68113832  0.42932060    -0.80000
Cd377      Cd  0.92891458  0.70515947  0.35673341     1.59700
Cd378      Cd  0.92547217  0.76372481  0.34791539     1.59600
O379        O  0.96952766  0.73801655  0.37034023    -0.80000
O380        O  0.90931586  0.72386333  0.33342162    -1.90500
Cd381      Cd  0.87246641  0.71037353  0.36821925     1.59900
O382        O  0.96893433  0.77782991  0.35867793    -0.80000
O383        O  0.84183365  0.68978290  0.30921589    -0.78600
C384        C  0.88961010  0.75697041  0.23551468     0.83900
C385        C  0.91944032  0.67472355  0.23624959     0.83600
O386        O  0.86523123  0.67228465  0.26943323    -0.77600
C387        C  0.88339793  0.67239740  0.44764674     0.84400
O388        O  0.88893769  0.73475528  0.21886251    -0.77700
C389        C  0.98190918  0.76464933  0.36921178     0.84500
C390        C  0.88248270  0.75889017  0.43670920     0.84800
O391        O  0.90842386  0.76932731  0.42845818    -0.80100
O392        O  0.13021228  0.80484077  0.47143468    -0.77600
C393        C  0.10484136  0.86786578  0.02055848     0.83400
O394        O  0.07153088  0.74833342  0.45591358    -0.78700
O395        O  0.02552847  0.80616613  0.39246120    -0.80200
O396        O  0.12777438  0.87452240  0.35575582    -0.80000
O397        O  0.15277022  0.84699255  0.43751725    -0.78600
Zn398      Zn  0.09673489  0.80766361  0.49026592     1.55700
O399        O  0.08583219  0.85833628  0.32276963    -0.80000
Cd400      Cd  0.12131381  0.83649983  0.38125722     1.59700
Cd401      Cd  0.06515049  0.77306380  0.39196411     1.59600
O402        O  0.12630380  0.81308575  0.31703034    -0.80000
O403        O  0.08467457  0.81166380  0.41633965    -1.90500
Cd404      Cd  0.06889408  0.83558719  0.40333403     1.59900
O405        O  0.08717903  0.77163019  0.31971422    -0.80000
O406        O  0.08971752  0.86475260  0.47398838    -0.78600
C407        C  0.07601515  0.75413397  0.01479719     0.83900
C408        C  0.15262225  0.82598677  0.45714813     0.83600
O409        O  0.10582020  0.84648897  0.03664955    -0.77600
C410        C  0.11180776  0.87482092  0.31723623     0.84400
O411        O  0.07431814  0.77363478  0.04062092    -0.77700
C412        C  0.11146572  0.78795326  0.29996358     0.84500
C413        C  0.01243324  0.77993629  0.38031723     0.84800
O414        O  0.02464649  0.76565011  0.37783339    -0.80100
O415        O  0.31614294  0.12751591  0.99809200    -0.77600
C416        C  0.32091186  0.07311824  0.47779427     0.83400
O417        O  0.22025436  0.08643003  0.02599894    -0.78700
O418        O  0.25534021  0.02435564  0.12643767    -0.80200
O419        O  0.31327133  0.12636265  0.17705044    -0.80000
O420        O  0.30339365  0.15097641  0.05600547    -0.78600
Zn421      Zn  0.28135032  0.09080677  0.99799818     1.55700
O422        O  0.31249669  0.08592699  0.17884472    -0.80000
Cd423      Cd  0.28385056  0.12065363  0.11542832     1.59700
Cd424      Cd  0.23047255  0.06693446  0.09361693     1.59600
O425        O  0.25364942  0.12670368  0.15163221    -0.80000
O426        O  0.27028412  0.08390112  0.07887487    -1.90500
Cd427      Cd  0.28834420  0.06418891  0.10718219     1.59900
O428        O  0.22469332  0.08307742  0.17374090    -0.80000
O429        O  0.31887546  0.06974304  0.04414083    -0.78600
C430        C  0.23379494  0.09712330  0.47732702     0.83900
C431        C  0.32057138  0.14996493  0.02167244     0.83600
O432        O  0.30115773  0.07486842  0.45492038    -0.77600
C433        C  0.32201891  0.11086704  0.19650570     0.84400
O434        O  0.25781503  0.10135684  0.46605866    -0.77700
C435        C  0.23517334  0.10886752  0.18483356     0.84500
C436        C  0.22883083  0.01183039  0.12413143     0.84800
O437        O  0.21576081  0.02406090  0.10753345    -0.80100
O438        O  0.12812587  0.86942591  0.22848808    -0.77600
C439        C  0.16178701  0.84075960  0.10566484     0.83400
O440        O  0.23233507  0.92021901  0.24767471    -0.78700
O441        O  0.21804122  0.91751026  0.02697114    -0.80200
O442        O  0.12441176  0.90075471  0.10047767    -0.80000
O443        O  0.13811149  0.91226254  0.24735361    -0.78600
Zn444      Zn  0.16499070  0.87830301  0.20005744     1.55700
O445        O  0.15021825  0.90444204  0.02337318    -0.80000
Cd446      Cd  0.15716820  0.92523586  0.16130962     1.59700
Cd447      Cd  0.22076013  0.93129606  0.16854675     1.59600
O448        O  0.18686148  0.96812140  0.14251608    -0.80000
O449        O  0.18102000  0.90893624  0.15101871    -1.90500
Cd450      Cd  0.17942025  0.89884438  0.06608989     1.59900
O451        O  0.22841374  0.97123559  0.15341532    -0.80000
O452        O  0.16831217  0.85793693  0.06385036    -0.78600
C453        C  0.21760807  0.89715789  0.27387335     0.83900
C454        C  0.12495134  0.88631817  0.25992171     0.83600
O455        O  0.15893104  0.84624486  0.15826593    -0.77600
C456        C  0.12661370  0.89404111  0.04735888     0.84400
O457        O  0.19213548  0.88154597  0.26145361    -0.77700
C458        C  0.21356448  0.98204391  0.14112376     0.84500
C459        C  0.23631777  0.91433851  0.05291437     0.84800
O460        O  0.24010865  0.91834231  0.10832807    -0.80100
O461        O  0.84844623  0.69536353  0.11638520    -0.77600
C462        C  0.77984872  0.67814229  0.47646672     0.83400
O463        O  0.86020624  0.77227297  0.01516005    -0.78700
O464        O  0.76716011  0.74078786  0.10276036    -0.80200
O465        O  0.77214637  0.69530589  0.22837107    -0.80000
O466        O  0.81479654  0.67913014  0.18103821    -0.78600
Zn467      Zn  0.82757342  0.70607179  0.06499744     1.55700
O468        O  0.75137821  0.67363131  0.14612336    -0.80000
Cd469      Cd  0.81054718  0.71302674  0.18898316     1.59700
Cd470      Cd  0.83789238  0.76412580  0.09829287     1.59600
O471        O  0.84342392  0.74393854  0.23503979    -0.80000
O472        O  0.81211196  0.72383395  0.10588984    -1.90500
Cd473      Cd  0.77274567  0.70653071  0.08690421     1.59900
O474        O  0.86886720  0.77064388  0.16080409    -0.80000
O475        O  0.76379378  0.68241415  0.00841519    -0.78600
C476        C  0.87087077  0.75934844  0.49485963     0.83900
C477        C  0.83278833  0.67689292  0.15182075     0.83600
O478        O  0.80555761  0.68912114  0.48708880    -0.77600
C479        C  0.75424391  0.67341393  0.20183605     0.84400
O480        O  0.86920022  0.74106227  0.52941987    -0.77700
C481        C  0.86680391  0.75968214  0.21139737     0.84500
C482        C  0.78278600  0.76660515  0.11681150     0.84800
O483        O  0.80947273  0.77876545  0.11659597    -0.80100
O484        O  0.74288945  0.84720237  0.29876320    -0.77600
C485        C  0.67798447  0.82914997  0.22822842     0.83400
O486        O  0.67934015  0.75162909  0.22311438    -0.78700
O487        O  0.68802854  0.81537975  0.08491253    -0.80200
O488        O  0.77522118  0.86101179  0.08685633    -0.80000
O489        O  0.77994418  0.86761850  0.23839447    -0.78600
Zn490      Zn  0.71614834  0.81105662  0.25985344     1.55700
O491        O  0.74830521  0.87664703  0.11585897    -0.80000
Cd492      Cd  0.76968104  0.83810417  0.16683044     1.59700
Cd493      Cd  0.70998174  0.77610614  0.15778648     1.59600
O494        O  0.78241441  0.80803499  0.14985502    -0.80000
O495        O  0.72999785  0.81477119  0.18250572    -1.90500
Cd496      Cd  0.71768329  0.83910909  0.14705791     1.59900
O497        O  0.74193382  0.76818274  0.13581255    -0.80000
O498        O  0.69808757  0.85001857  0.20554723    -0.78600
C499        C  0.67962295  0.75468574  0.27941028     0.83900
C500        C  0.76574552  0.86820404  0.28291883     0.83600
O501        O  0.68022105  0.80901976  0.24537150    -0.77600
C502        C  0.76550342  0.87711659  0.07928562     0.84400
O503        O  0.70113092  0.77441785  0.30393272    -0.77700
C504        C  0.76849447  0.78208034  0.13508516     0.84500
C505        C  0.67782436  0.79030780  0.06764332     0.84800
O506        O  0.68590200  0.77422875  0.08727309    -0.80100
O507        O  0.85163993  0.14638652  0.32503284    -0.77600
C508        C  0.86106229  0.10388415  0.22671218     0.83400
O509        O  0.76232262  0.06944629  0.25651582    -0.78700
O510        O  0.81620980  0.02786741  0.36434606    -0.80200
O511        O  0.85164236  0.10188726  0.47780715    -0.80000
O512        O  0.82975106  0.14000313  0.41022429    -0.78600
Zn513      Zn  0.82389076  0.11000987  0.29618894     1.55700
O514        O  0.87514466  0.09660870  0.40484778    -0.80000
Cd515      Cd  0.81999926  0.10064737  0.43028574     1.59700
Cd516      Cd  0.77609981  0.06004849  0.33757388     1.59600
O517        O  0.78351319  0.08447543  0.47592637    -0.80000
O518        O  0.81586810  0.08393201  0.35239033    -1.90500
Cd519      Cd  0.84351800  0.07175150  0.34341146     1.59900
O520        O  0.75593763  0.07229705  0.39772080    -0.80000
O521        O  0.86825024  0.09180821  0.26464580    -0.78600
C522        C  0.77064971  0.09516403  0.24823078     0.83900
C523        C  0.84347901  0.15532596  0.36744696     0.83600
O524        O  0.83645793  0.09883252  0.22665710    -0.77600
C525        C  0.87436469  0.10729716  0.45436953     0.84400
O526        O  0.79159670  0.11332603  0.27608566    -0.77700
C527        C  0.76172309  0.08090194  0.45088730     0.84500
C528        C  0.78959717  0.01305651  0.37069264     0.84800
O529        O  0.77331334  0.02238283  0.35903155    -0.80100
O530        O  0.69406983  0.88237261  0.02255254    -0.77600
C531        C  0.68233028  0.84188211  0.37419806     0.83400
O532        O  0.77780553  0.91411679  0.50918855    -0.78700
O533        O  0.75897130  0.90603416  0.28658775    -0.80200
O534        O  0.68366398  0.92279655  0.36710276    -0.80000
O535        O  0.69296164  0.92354644  0.50746324    -0.78600
Zn536      Zn  0.71740481  0.88172322  0.46407935     1.55700
O537        O  0.69987248  0.91242076  0.28728992    -0.80000
Cd538      Cd  0.71598152  0.93450251  0.42726442     1.59700
Cd539      Cd  0.77281459  0.92692987  0.42196324     1.59600
O540        O  0.74984715  0.97356856  0.40715376    -0.80000
O541        O  0.73233286  0.91123239  0.41215157    -1.90500
Cd542      Cd  0.72334136  0.89822465  0.32915988     1.59900
O543        O  0.78804650  0.96993223  0.39814277    -0.80000
O544        O  0.69694656  0.85627022  0.33132759    -0.78600
C545        C  0.76528147  0.88861497  0.02098168     0.83900
C546        C  0.68460237  0.89815033  0.03606702     0.83600
O547        O  0.68768665  0.85007623  0.42699245    -0.77600
C548        C  0.68124615  0.91529240  0.31312637     0.84400
O549        O  0.74658252  0.87142781  0.98722907    -0.77700
C550        C  0.77548930  0.98391584  0.39363667     0.84500
C551        C  0.77131701  0.89473162  0.30999949     0.84800
O552        O  0.78028013  0.90118795  0.36304825    -0.80100
O553        O  0.48799911  0.01269766  0.23681072    -0.77600
C554        C  0.44548163  0.01878298  0.13087485     0.83400
O555        O  0.52956334  0.10678576  0.17055833    -0.78700
O556        O  0.43768298  0.07946181  0.26705689    -0.80200
O557        O  0.44993174  0.02627592  0.38335782    -0.80000
O558        O  0.50269514  0.02436018  0.32853559    -0.78600
Zn559      Zn  0.49338757  0.04673571  0.20875599     1.55700
O560        O  0.42169069  0.01265186  0.30566082    -0.80000
Cd561      Cd  0.48721447  0.05053781  0.34183927     1.59700
Cd562      Cd  0.50836821  0.10266922  0.25465383     1.59600
O563        O  0.51565164  0.08475959  0.38931476    -0.80000
O564        O  0.48159682  0.06214863  0.26353492    -1.90500
Cd565      Cd  0.44227907  0.04548325  0.24747496     1.59900
O566        O  0.54087213  0.11060158  0.31497420    -0.80000
O567        O  0.42998116  0.02209946  0.16741770    -0.78600
C568        C  0.53998017  0.09096327  0.16571755     0.83900
C569        C  0.49730079  0.00868168  0.28379340     0.83600
O570        O  0.47164013  0.03407492  0.13378929    -0.77600
C571        C  0.42766236  0.00875286  0.35752242     0.84400
O572        O  0.53342292  0.07220925  0.20343709    -0.77700
C573        C  0.53911348  0.10016155  0.36598442     0.84500
C574        C  0.45342411  0.10530989  0.27987073     0.84800
O575        O  0.48013892  0.11777143  0.27598725    -0.80100
O576        O  0.34711924  0.14183080  0.42639257    -0.77600
C577        C  0.34802991  0.08673827  0.44578855     0.83400
O578        O  0.44400481  0.20257926  0.40489727    -0.78700
O579        O  0.41218386  0.10500644  0.30307209    -0.80200
O580        O  0.35241366  0.14647721  0.26122678    -0.80000
O581        O  0.36474226  0.18226482  0.38479442    -0.78600
Zn582      Zn  0.38366606  0.14349099  0.43376032     1.55700
O583        O  0.35431468  0.10739764  0.25616656    -0.80000
Cd584      Cd  0.38243358  0.17107859  0.32205788     1.59700
Cd585      Cd  0.43590749  0.17342436  0.33365361     1.59600
O586        O  0.41138896  0.20880678  0.28973546    -0.80000
O587        O  0.39684777  0.14820028  0.35438413    -1.90500
Cd588      Cd  0.37881957  0.11023393  0.32633230     1.59900
O589        O  0.43800787  0.19462261  0.25231550    -0.80000
O590        O  0.34832260  0.08451898  0.38946756    -0.78600
C591        C  0.43116717  0.20137258  0.45341923     0.83900
C592        C  0.34454975  0.16155237  0.40743474     0.83600
O593        O  0.36939830  0.10575939  0.47217298    -0.77600
C594        C  0.34414214  0.12223181  0.24039414     0.84400
O595        O  0.41141534  0.17877113  0.47424885    -0.77700
C596        C  0.42665691  0.20942149  0.24823642     0.84500
C597        C  0.43866285  0.11994639  0.30064685     0.84800
O598        O  0.45170559  0.14589241  0.31541152    -0.80100
O599        O  0.47354496  0.45994520  0.43406097    -0.77600
C600        C  0.53214719  0.43363644  0.40196282     0.83400
O601        O  0.41751269  0.40434546  0.46069492    -0.78700
O602        O  0.47465748  0.35674466  0.03450080    -0.80200
O603        O  0.54244005  0.45908944  0.05745227    -0.80000
O604        O  0.51615854  0.48211324  0.97442419    -0.78600
Zn605      Zn  0.47515034  0.42513715  0.42209644     1.55700
O606        O  0.52775778  0.41872880  0.09712617    -0.80000
Cd607      Cd  0.50430134  0.45193825  0.03339242     1.59700
Cd608      Cd  0.44176684  0.39611248  0.02420032     1.59600
O609        O  0.48073281  0.45778411  0.09590282    -0.80000
O610        O  0.48001577  0.41516528  0.99887980    -1.90500
Cd611      Cd  0.50419218  0.39993680  0.01709248     1.59900
O612        O  0.43993438  0.41802895  0.09542424    -0.80000
O613        O  0.53238204  0.41980221  0.44721433    -0.78600
C614        C  0.42027316  0.40659244  0.40436952     0.83900
C615        C  0.49444112  0.48188193  0.45164862     0.83600
O616        O  0.51064052  0.43377794  0.38397511    -0.77600
C617        C  0.54377821  0.44499782  0.09891492     0.84400
O618        O  0.43843687  0.40255749  0.37973091    -0.77700
C619        C  0.45593236  0.44270876  0.11388745     0.84500
C620        C  0.44873133  0.34408043  0.04819311     0.84800
O621        O  0.43433409  0.35614714  0.04601204    -0.80100
O622        O  0.34030133  0.20254363  0.15361668    -0.77600
C623        C  0.34712386  0.17453069  0.01752111     0.83400
O624        O  0.43937816  0.24291404  0.16756423    -0.78700
O625        O  0.41724247  0.23403018  0.45474219    -0.80200
O626        O  0.34423422  0.25232778  0.03390907    -0.80000
O627        O  0.34957347  0.24569202  0.17112080    -0.78600
Zn628      Zn  0.37431396  0.20720068  0.11191568     1.55700
O629        O  0.35573965  0.23391861  0.45429580    -0.80000
Cd630      Cd  0.37527212  0.26277996  0.09529257     1.59700
Cd631      Cd  0.43250399  0.25680083  0.08321712     1.59600
O632        O  0.40838555  0.30352149  0.08180595    -0.80000
O633        O  0.39245038  0.24100625  0.07280627    -1.90500
Cd634      Cd  0.38411130  0.23353132  0.98678680     1.59900
O635        O  0.44635574  0.30000421  0.06612225    -0.80000
O636        O  0.35032212  0.19455551  0.98604760    -0.78600
C637        C  0.42228440  0.21960622  0.19149128     0.83900
C638        C  0.33461674  0.21944235  0.17938741     0.83600
O639        O  0.36498184  0.17736645  0.05481614    -0.77600
C640        C  0.33925802  0.24136418  0.47425528     0.84400
O641        O  0.39809027  0.20475738  0.17146838    -0.77700
C642        C  0.43393046  0.31421736  0.06681810     0.84500
C643        C  0.43270533  0.22651805  0.47901128     0.84800
O644        O  0.44075121  0.23343900  0.01972451    -0.80100
O645        O  0.54386968  0.47381865  0.17059371    -0.77600
C646        C  0.51078690  0.49148657  0.31831639     0.83400
O647        O  0.58849574  0.56352512  0.18033226    -0.78700
O648        O  0.58934266  0.55088024  0.39910131    -0.80200
O649        O  0.56593055  0.45417174  0.32555290    -0.80000
O650        O  0.57733865  0.46404424  0.18095358    -0.78600
Zn651      Zn  0.54626552  0.49925983  0.23114836     1.55700
O652        O  0.56694545  0.47966997  0.40242882    -0.80000
Cd653      Cd  0.59166067  0.48573692  0.26527066     1.59700
Cd654      Cd  0.60144695  0.55177829  0.25787791     1.59600
O655        O  0.63473916  0.51331091  0.28804051    -0.80000
O656        O  0.57825366  0.51223704  0.27431921    -1.90500
Cd657      Cd  0.56844357  0.51254127  0.35828900     1.59900
O658        O  0.64001269  0.55613671  0.27880246    -0.80000
O659        O  0.53024020  0.50804024  0.35190851    -0.78600
C660        C  0.56263987  0.55390703  0.17137475     0.83900
C661        C  0.55579867  0.46093571  0.15394995     0.83600
O662        O  0.51415607  0.47704668  0.28016815    -0.77600
C663        C  0.55793579  0.45619845  0.37736260     0.84400
O664        O  0.54467781  0.53110616  0.19454107    -0.77700
C665        C  0.64945472  0.54007596  0.29241709     0.84500
C666        C  0.58569527  0.56884265  0.37301919     0.84800
O667        O  0.58933171  0.57210655  0.31760581    -0.80100
O668        O  0.81506273  0.62580271  0.32325188    -0.77600
C669        C  0.76818264  0.65441524  0.43454451     0.83400
O670        O  0.75061582  0.54868440  0.42275119    -0.78700
O671        O  0.68883784  0.58004659  0.32953835    -0.80200
O672        O  0.73937148  0.62538499  0.20664331    -0.80000
O673        O  0.79761972  0.63968634  0.25390358    -0.78600
Zn674      Zn  0.78300970  0.61505057  0.37320411     1.55700
O675        O  0.73901836  0.64632749  0.28915053    -0.80000
Cd676      Cd  0.75887872  0.60652624  0.24698307     1.59700
Cd677      Cd  0.73569993  0.55623837  0.33935940     1.59600
O678        O  0.75870414  0.57436802  0.20118889    -0.80000
O679        O  0.75020175  0.59659411  0.33101453    -1.90500
Cd680      Cd  0.72806262  0.61387764  0.34837461     1.59900
O681        O  0.76041528  0.55002196  0.27647587    -0.80000
O682        O  0.74219551  0.63881381  0.42551247    -0.78600
C683        C  0.77306697  0.56679417  0.44864952     0.83900
C684        C  0.81775790  0.64318827  0.28514754     0.83600
O685        O  0.78546501  0.64859399  0.41191173    -0.77600
C686        C  0.74193991  0.64668361  0.23341125     0.84400
O687        O  0.78574790  0.59169238  0.43205445    -0.77700
C688        C  0.76802058  0.56013990  0.22471619     0.84500
C689        C  0.67856901  0.55432613  0.31510289     0.84800
O690        O  0.69257410  0.54168402  0.31814631    -0.80100
O691        O  0.88666089  0.62653349  0.22367623    -0.77600
C692        C  0.83240047  0.65103414  0.15073422     0.83400
O693        O  0.79435064  0.54940561  0.15568872    -0.78700
O694        O  0.78578981  0.57759392  0.54615567    -0.80200
O695        O  0.88755213  0.64306253  0.00914457    -0.80000
O696        O  0.90957385  0.64923512  0.14445222    -0.78600
Zn697      Zn  0.85098324  0.61333709  0.17860345     1.55700
O698        O  0.84725667  0.63891943  0.50624273    -0.80000
Cd699      Cd  0.88565341  0.61864867  0.07875067     1.59700
Cd700      Cd  0.82396228  0.55906867  0.08563508     1.59600
O701        O  0.89400715  0.58667174  0.05899315    -0.80000
O702        O  0.84721362  0.59877069  0.10216873    -1.90500
Cd703      Cd  0.82285401  0.61142828  0.06912804     1.59900
O704        O  0.85391534  0.54622496  0.07026159    -0.80000
O705        O  0.81142015  0.62997690  0.13055242    -0.78600
C706        C  0.79400021  0.56432389  0.19927318     0.83900
C707        C  0.90613932  0.64844603  0.20050246     0.83600
O708        O  0.85348742  0.64984841  0.16443308    -0.77600
C709        C  0.87261266  0.65031608  0.49125756     0.84400
O710        O  0.81507603  0.58712067  0.21549725    -0.77700
C711        C  0.87996039  0.56000258  0.05782380     0.84500
C712        C  0.78499134  0.56271782  0.50347497     0.84800
O713        O  0.80171843  0.55397152  0.00491379    -0.80100
O714        O  0.98850180  0.52345538  0.43377583    -0.77600
C715        C  0.90267246  0.46414869  0.39889044     0.83400
O716        O  0.98935073  0.58010003  0.45928118    -0.78700
O717        O  0.88193140  0.51931103  0.02714454    -0.80200
O718        O  0.91652616  0.45217898  0.06378883    -0.80000
O719        O  0.96799594  0.47896226  0.97777705    -0.78600
Zn720      Zn  0.95231655  0.52125444  0.42136356     1.55700
O721        O  0.88972475  0.46784179  0.09305520    -0.80000
Cd722      Cd  0.94779730  0.48976134  0.03507010     1.59700
Cd723      Cd  0.95446388  0.55223253  0.02451568     1.59600
O724        O  0.97728769  0.51378458  0.09742088    -0.80000
O725        O  0.93533370  0.51372125  0.99889439    -1.90500
Cd726      Cd  0.89548941  0.48994653  0.01223566     1.59900
O727        O  0.97864562  0.55459087  0.09552716    -0.80000
O728        O  0.88858529  0.46450044  0.44367219    -0.78600
C729        C  0.98871381  0.57705627  0.40295225     0.83900
C730        C  0.99155123  0.50405432  0.45267007     0.83600
O731        O  0.92537117  0.48524055  0.38263620    -0.77600
C732        C  0.89977810  0.45209501  0.10102474     0.84400
O733        O  0.96667145  0.55798028  0.37875838    -0.77700
C734        C  0.98733570  0.53888110  0.11444897     0.84500
C735        C  0.89520788  0.54527321  0.04174247     0.84800
O736        O  0.92176618  0.55964161  0.04288348    -0.80100
O737        O  0.81655654  0.22547920  0.46564854    -0.77600
C738        C  0.84556958  0.18190587  0.36171169     0.83400
O739        O  0.91467576  0.26401696  0.39352023    -0.78700
O740        O  0.85729347  0.23254839  0.21249977    -0.80200
O741        O  0.80088569  0.24309464  0.25702313    -0.80000
O742        O  0.79495559  0.24030058  0.40549337    -0.78600
Zn743      Zn  0.85040557  0.23250958  0.42326258     1.55700
O744        O  0.79517448  0.20356943  0.28662690    -0.80000
Cd745      Cd  0.82491242  0.26180718  0.33614893     1.59700
Cd746      Cd  0.89080421  0.27105360  0.32995939     1.59600
O747        O  0.85244401  0.30560635  0.32017275    -0.80000
O748        O  0.85173133  0.24863262  0.34912579    -1.90500
Cd749      Cd  0.83687589  0.21951266  0.29022973     1.59900
O750        O  0.89433300  0.30908413  0.31305762    -0.80000
O751        O  0.84494979  0.18990097  0.31021536    -0.78600
C752        C  0.90876614  0.25526913  0.44668516     0.83900
C753        C  0.79506045  0.22588580  0.44971748     0.83600
O754        O  0.84531970  0.19514665  0.40718728    -0.77600
C755        C  0.78893474  0.21679210  0.25102768     0.84400
O756        O  0.88624602  0.25088033  0.47012706    -0.77700
C757        C  0.87863193  0.31953413  0.30891160     0.84500
C758        C  0.88260058  0.23958489  0.21364235     0.84800
O759        O  0.89855027  0.25480826  0.25481598    -0.80100
O760        O  0.97782549  0.48267324  0.25493200    -0.77600
C761        C  0.98140916  0.42967363  0.14256017     0.83400
O762        O  0.88801300  0.41610307  0.17438093    -0.78700
O763        O  0.91819826  0.35922654  0.27409433    -0.80200
O764        O  0.96664281  0.41612421  0.39292328    -0.80000
O765        O  0.97339247  0.47352106  0.35093888    -0.78600
Zn766      Zn  0.94963436  0.45036762  0.21682247     1.55700
O767        O  0.98479790  0.41062922  0.31062190    -0.80000
Cd768      Cd  0.94463925  0.43241797  0.35252377     1.59700
Cd769      Cd  0.89466590  0.40504324  0.26127446     1.59600
O770        O  0.90984989  0.42670542  0.39579415    -0.80000
O771        O  0.93517049  0.42090274  0.26878182    -1.90500
Cd772      Cd  0.95164587  0.39789326  0.25257111     1.59900
O773        O  0.88781102  0.43098893  0.31972174    -0.80000
O774        O  0.97350571  0.40729633  0.17133822    -0.78600
C775        C  0.90118651  0.44175323  0.15962305     0.83900
C776        C  0.98548997  0.48932856  0.30767287     0.83600
O777        O  0.97150757  0.44529615  0.15359264    -0.77600
C778        C  0.98656351  0.41619571  0.36559616     0.84400
O779        O  0.92134930  0.45912693  0.19032909    -0.77700
C780        C  0.89727556  0.43776283  0.37226622     0.84500
C781        C  0.89266251  0.34881489  0.28843990     0.84800
O782        O  0.87995126  0.36263451  0.28549570    -0.80100
O783        O  0.59318792  0.03455024  0.36631434    -0.77600
C784        C  0.51306350  0.01018072  0.43512760     0.83400
O785        O  0.57560009  0.11096190  0.43610050    -0.78700
O786        O  0.54257445  0.06185679  0.09733804    -0.80200
O787        O  0.58611562  0.01553492  0.07752743    -0.80000
O788        O  0.59220587  0.01206874  0.44668851    -0.78600
Zn789      Zn  0.57045710  0.04871546  0.40773683     1.55700
O790        O  0.54255499  0.00409559  0.06184609    -0.80000
Cd791      Cd  0.60382123  0.04306774  0.00805242     1.59700
Cd792      Cd  0.59473408  0.10049681  0.00934149     1.59600
O793        O  0.64154914  0.07764018  0.03182463    -0.80000
O794        O  0.58219654  0.06074009  0.99048232    -1.90500
Cd795      Cd  0.54747364  0.04065090  0.03162924     1.59900
O796        O  0.63811079  0.11634106  0.03045048    -0.80000
O797        O  0.51595742  0.03100480  0.97695528    -0.78600
C798        C  0.56192276  0.09718817  0.38986456     0.83900
C799        C  0.58945649  0.01238042  0.39056107     0.83600
O800        O  0.53514403  0.01254460  0.41518790    -0.77600
C801        C  0.56030262  0.99916123  0.08422259     0.84400
O802        O  0.56244063  0.07601371  0.36970534    -0.77700
C803        C  0.65191557  0.10388423  0.04004870     0.84500
C804        C  0.55300570  0.08702128  0.11229467     0.84800
O805        O  0.57397334  0.10604685  0.08503200    -0.80100
O806        O  0.77737187  0.13139186  0.18771092    -0.77600
C807        C  0.82186210  0.16757795  0.03353850     0.83400
O808        O  0.75231865  0.19328079  0.17664332    -0.78700
O809        O  0.75925693  0.17980117  0.45115952    -0.80200
O810        O  0.74176806  0.08903713  0.03512782    -0.80000
O811        O  0.73713276  0.09311486  0.17558188    -0.78600
Zn812      Zn  0.78303419  0.16013440  0.12983727     1.55700
O813        O  0.74301499  0.11017020  0.45536785    -0.80000
Cd814      Cd  0.72938810  0.10844041  0.09557797     1.59700
Cd815      Cd  0.73852512  0.17397968  0.09027033     1.59600
O816        O  0.69110419  0.10338334  0.07461931    -0.80000
O817        O  0.75342904  0.14857577  0.07979049    -1.90500
Cd818      Cd  0.76485373  0.15222779  0.99479445     1.59900
O819        O  0.69533575  0.14573016  0.06730351    -0.80000
O820        O  0.80642289  0.16587370  0.99091915    -0.78600
C821        C  0.77714520  0.20217388  0.19472609     0.83900
C822        C  0.76037430  0.10656269  0.20198984     0.83600
O823        O  0.81448001  0.16541366  0.08679437    -0.77600
C824        C  0.74613623  0.09179815  0.48123616     0.84400
O825        O  0.79259006  0.19488822  0.16940156    -0.77700
C826        C  0.68108696  0.11895922  0.06217876     0.84500
C827        C  0.76933273  0.20343247  0.47611090     0.84800
O828        O  0.76319114  0.20717966  0.03061478    -0.80100
O829        O  0.06780492  0.52198212  0.59902897    -0.77600
C830        C  0.01776395  0.50565937  0.45002556     0.83400
O831        O  0.02222108  0.43295204  0.58846812    -0.78700
O832        O  0.03474091  0.44277295  0.86881604    -0.80200
O833        O  0.10900704  0.53867677  0.94341197    -0.80000
O834        O  0.11108026  0.53158517  0.58915367    -0.78600
Zn835      Zn  0.04503758  0.49713931  0.53747245     1.55700
O836        O  0.08212802  0.51425504  0.86783681    -0.80000
Cd837      Cd  0.10194483  0.50669338  0.00351514     1.59700
Cd838      Cd  0.04447390  0.44094984  0.01084418     1.59600
O839        O  0.11715614  0.47877687  0.98355248    -0.80000
O840        O  0.06403657  0.48402001  0.49399020    -1.90500
Cd841      Cd  0.05118494  0.48057549  0.91137785     1.59900
O842        O  0.07903825  0.43630334  0.99414169    -0.80000
O843        O  0.01664855  0.48369633  0.91944992    -0.78600
C844        C  0.00618301  0.44276099  0.59706367     0.83900
C845        C  0.09252877  0.53453623  0.61636290     0.83600
O846        O  0.03500063  0.51942762  0.48968895    -0.77600
C847        C  0.09825123  0.53738430  0.89285722     0.84400
O848        O  0.01134099  0.46551520  0.57357611    -0.77700
C849        C  0.10486588  0.45198318  0.98145776     0.84500
C850        C  0.01270673  0.42464876  0.89373812     0.84800
O851        O  0.01253531  0.42079997  0.94908637    -0.80100
O852        O  0.18268572  0.41104562  0.80012434    -0.77600
C853        C  0.15770706  0.33636068  0.89811675     0.83400
O854        O  0.08678855  0.34611965  0.87552233    -0.78700
O855        O  0.14409643  0.37285566  0.55524792    -0.80200
O856        O  0.19784902  0.43998966  0.01877497    -0.80000
O857        O  0.20617287  0.44292425  0.87040249    -0.78600
Zn858      Zn  0.15063392  0.38172520  0.84383677     1.55700
O859        O  0.20606266  0.40721394  0.48248055    -0.80000
Cd860      Cd  0.17526090  0.43534786  0.93780904     1.59700
Cd861      Cd  0.11029007  0.37741177  0.93995849     1.59600
O862        O  0.14623922  0.45021598  0.95295687    -0.80000
O863        O  0.14945107  0.39530114  0.92079747    -1.90500
Cd864      Cd  0.16589133  0.38165203  0.97629864     1.59900
O865        O  0.10472825  0.41076504  0.95832218    -0.80000
O866        O  0.15962693  0.34513485  0.95030203    -0.78600
C867        C  0.09244209  0.34433828  0.82141286     0.83900
C868        C  0.20527338  0.43008879  0.82189811     0.83600
O869        O  0.15678681  0.34963993  0.85376460    -0.77600
C870        C  0.21168749  0.42568525  0.52116554     0.84400
O871        O  0.11443522  0.36365360  0.79830750    -0.77700
C872        C  0.11985591  0.43722169  0.96300638     0.84500
C873        C  0.11860392  0.35475515  0.55399892     0.84800
O874        O  0.10344621  0.35354510  0.01365095    -0.80100
O875        O  0.03426077  0.59210852  0.89529206    -0.77600
C876        C  0.01046220  0.51326529  0.81966546     0.83400
O877        O  0.11080554  0.57533527  0.82595314    -0.78700
O878        O  0.08028501  0.53550837  0.71315620    -0.80200
O879        O  0.01955584  0.57669768  0.67974264    -0.80000
O880        O  0.01206978  0.59152755  0.81470316    -0.78600
Zn881      Zn  0.04805255  0.56970028  0.85140822     1.55700
O882        O  0.02026140  0.53690541  0.67845380    -0.80000
Cd883      Cd  0.04320791  0.59867176  0.75038971     1.59700
Cd884      Cd  0.10213502  0.59534652  0.75479379     1.59600
O885        O  0.07520291  0.63813016  0.72674848    -0.80000
O886        O  0.06284796  0.58023005  0.77440573    -1.90500
Cd887      Cd  0.04994690  0.54318123  0.74051875     1.59900
O888        O  0.11529471  0.63798834  0.73445298    -0.80000
O889        O  0.03194124  0.51407176  0.80178985    -0.78600
C890        C  0.09615947  0.56085598  0.87031507     0.83900
C891        C  0.01230393  0.58867741  0.87079031     0.83600
O892        O  0.01140832  0.53509013  0.83755482    -0.77600
C893        C  0.01087297  0.55219631  0.66053861     0.84400
O894        O  0.07450612  0.56069232  0.88857344    -0.77700
C895        C  0.10158664  0.65017482  0.72156759     0.84500
C896        C  0.09612948  0.54995236  0.67221417     0.84800
O897        O  0.10670018  0.57623191  0.67502396    -0.80100
O898        O  0.13902123  0.79083880  0.57459381    -0.77600
C899        C  0.19826240  0.76637064  0.54424738     0.83400
O900        O  0.08316684  0.73531554  0.60354961    -0.78700
O901        O  0.14165081  0.69187653  0.68487637    -0.80200
O902        O  0.20266943  0.79610798  0.72431521    -0.80000
O903        O  0.18082882  0.81330196  0.60965739    -0.78600
Zn904      Zn  0.14101016  0.75634094  0.56550299     1.55700
O905        O  0.19507428  0.75387475  0.73986334    -0.80000
Cd906      Cd  0.16777425  0.78675936  0.67740174     1.59700
Cd907      Cd  0.10717428  0.72976016  0.67020162     1.59600
O908        O  0.14192520  0.79403332  0.73013261    -0.80000
O909        O  0.14559960  0.74886376  0.64566068    -1.90500
Cd910      Cd  0.17035088  0.73446632  0.66268977     1.59900
O911        O  0.10406417  0.75224300  0.73954767    -0.80000
O912        O  0.19892776  0.75341343  0.59065896    -0.78600
C913        C  0.08613251  0.73702127  0.54727916     0.83900
C914        C  0.15991174  0.81325294  0.59022568     0.83600
O915        O  0.17622398  0.76511467  0.52539832    -0.77600
C916        C  0.20766242  0.77973680  0.75278043     0.84400
O917        O  0.10434756  0.73276632  0.52379853    -0.77700
C918        C  0.11828509  0.77798101  0.75257201     0.84500
C919        C  0.11584202  0.67931274  0.69937952     0.84800
O920        O  0.10102737  0.69084060  0.69519516    -0.80100
O921        O  0.65433444  0.79441764  0.84635729    -0.77600
C922        C  0.65264319  0.74035314  0.81325350     0.83400
O923        O  0.55562305  0.75629085  0.85755089    -0.78700
O924        O  0.58993472  0.69221610  0.96034754    -0.80200
O925        O  0.64608238  0.79345882  0.50669151    -0.80000
O926        O  0.63474277  0.81661861  0.88097892    -0.78600
Zn927      Zn  0.61755619  0.76030956  0.83284297     1.55700
O928        O  0.64700446  0.75456091  0.00483478    -0.80000
Cd929      Cd  0.61641624  0.78756145  0.94290649     1.59700
Cd930      Cd  0.56381650  0.73523720  0.92799873     1.59600
O931        O  0.58648941  0.79533123  0.46946884    -0.80000
O932        O  0.60318500  0.75016862  0.90996626    -1.90500
Cd933      Cd  0.62255942  0.73156677  0.93523160     1.59900
O934        O  0.55972687  0.75396813  0.00816842    -0.80000
O935        O  0.65305582  0.73771427  0.86947182    -0.78600
C936        C  0.57038467  0.77071109  0.81318348     0.83900
C937        C  0.65578548  0.81672766  0.86223258     0.83600
O938        O  0.63081097  0.73741353  0.78906952    -0.77600
C939        C  0.65548030  0.77821069  0.52470522     0.84400
O940        O  0.59189929  0.77049506  0.79535004    -0.77700
C941        C  0.57118998  0.78160284  0.51167370     0.84500
C942        C  0.56342510  0.68012361  0.96324004     0.84800
O943        O  0.55003172  0.69233938  0.94784648    -0.80100
O944        O  0.46412827  0.53805694  0.58359659    -0.77600
C945        C  0.49440144  0.50726432  0.46004718     0.83400
O946        O  0.56796975  0.58965285  0.59792497    -0.78700
O947        O  0.55244978  0.58259244  0.87828032    -0.80200
O948        O  0.45960169  0.56935158  0.95209526    -0.80000
O949        O  0.47339565  0.58099455  0.59886670    -0.78600
Zn950      Zn  0.50045867  0.54680512  0.55248944     1.55700
O951        O  0.48570596  0.57317047  0.87565187    -0.80000
Cd952      Cd  0.49178304  0.59332800  0.51157814     1.59700
Cd953      Cd  0.55558838  0.59984236  0.51758311     1.59600
O954        O  0.52186710  0.63687284  0.98850661    -0.80000
O955        O  0.51565720  0.57681417  0.50171955    -1.90500
Cd956      Cd  0.51407021  0.56637754  0.91863881     1.59900
O957        O  0.56358434  0.64037978  0.99963397    -0.80000
O958        O  0.50025181  0.52479480  0.91891481    -0.78600
C959        C  0.55330293  0.56675066  0.62498718     0.83900
C960        C  0.46089472  0.55528501  0.61369743     0.83600
O961        O  0.49472109  0.51429939  0.51303965    -0.77600
C962        C  0.46199299  0.56256649  0.89921196     0.84400
O963        O  0.52789237  0.55109768  0.61274821    -0.77700
C964        C  0.54853488  0.65081955  0.98525853     0.84500
C965        C  0.57223529  0.58220287  0.90481056     0.84800
O966        O  0.57632042  0.58759711  0.95984847    -0.80100
O967        O  0.56137315  0.96484429  0.87412648    -0.77600
C968        C  0.50416581  0.98737668  0.80982381     0.83400
O969        O  0.46532978  0.88938664  0.80775151    -0.78700
O970        O  0.45704108  0.91900887  0.69364709    -0.80200
O971        O  0.55743872  0.97842042  0.65872268    -0.80000
O972        O  0.58143247  0.98758758  0.79281885    -0.78600
Zn973      Zn  0.52397071  0.95035856  0.83502841     1.55700
O974        O  0.51811402  0.97959538  0.66519083    -0.80000
Cd975      Cd  0.55666969  0.95566605  0.72984578     1.59700
Cd976      Cd  0.49423523  0.89696469  0.73728743     1.59600
O977        O  0.56364182  0.92277772  0.71064529    -0.80000
O978        O  0.51883087  0.93632204  0.75652797    -1.90500
Cd979      Cd  0.49461380  0.94918023  0.72556868     1.59900
O980        O  0.52321219  0.88276800  0.72325853    -0.80000
O981        O  0.48347251  0.96587673  0.79065404    -0.78600
C982        C  0.46655533  0.90313334  0.85501383     0.83900
C983        C  0.57942549  0.98712236  0.84923962     0.83600
O984        O  0.52523992  0.98663396  0.82564537    -0.77600
C985        C  0.54207932  0.98808278  0.64364740     0.84400
O986        O  0.48905688  0.92327519  0.87551533    -0.77700
C987        C  0.54920260  0.89609517  0.71030526     0.84500
C988        C  0.45606006  0.90312824  0.65265139     0.84800
O989        O  0.47176550  0.89275110  0.65603940    -0.80100
O990        O  0.65727827  0.86725873  0.60391926    -0.77600
C991        C  0.65162582  0.82842084  0.72986219     0.83400
O992        O  0.55768574  0.80223722  0.59259742    -0.78700
O993        O  0.58436313  0.81747991  0.81400132    -0.80200
O994        O  0.65548956  0.91007027  0.72908468    -0.80000
O995        O  0.64785488  0.90100048  0.59083677    -0.78600
Zn996      Zn  0.62386117  0.83601701  0.64263909     1.55700
O997        O  0.63316716  0.88871071  0.80982634    -0.80000
Cd998      Cd  0.62332201  0.89000935  0.66819563     1.59700
Cd999      Cd  0.56538222  0.82460852  0.67632268     1.59600
O1000       O  0.59002081  0.89639986  0.68247148    -0.80000
O1001       O  0.60554148  0.85017522  0.68533861    -1.90500
Cd1002     Cd  0.61556355  0.85042345  0.76895678     1.59900
O1003       O  0.55160052  0.85416751  0.69346229    -0.80000
O1004       O  0.64907469  0.84565649  0.76185688    -0.78600
C1005       C  0.57557715  0.79791524  0.56644244     0.83900
C1006       C  0.66309455  0.89039092  0.58114699     0.83600
O1007       O  0.63390596  0.81398993  0.69161747    -0.77600
C1008       C  0.65526755  0.90650390  0.78452833     0.84400
O1009       O  0.60036341  0.81005271  0.58330520    -0.77700
C1010       C  0.56415314  0.88104955  0.69434301     0.84500
C1011       C  0.56837755  0.79419706  0.78943988     0.84800
O1012       O  0.55793090  0.79277289  0.73833755    -0.80100
O1013       O  0.48536377  0.96532517  0.46661401    -0.77600
C1014       C  0.43865720  0.99142626  0.58662429     0.83400
O1015       O  0.42146626  0.88807572  0.57208497    -0.78700
O1016       O  0.35708641  0.91846422  0.97769328    -0.80200
O1017       O  0.40876660  0.96334900  0.86092281    -0.80000
O1018       O  0.46851221  0.98360174  0.91237762    -0.78600
Zn1019     Zn  0.45397901  0.95368275  0.51937171     1.55700
O1020       O  0.40896305  0.98570538  0.94135074    -0.80000
Cd1021     Cd  0.43097488  0.94843953  0.90251549     1.59700
Cd1022     Cd  0.40596453  0.89407377  0.48756000     1.59600
O1023       O  0.43609377  0.91956101  0.85613417    -0.80000
O1024       O  0.42073222  0.93423748  0.47915476    -1.90500
Cd1025     Cd  0.39743429  0.94987999  0.50036792     1.59900
O1026       O  0.43119013  0.89060361  0.92842595    -0.80000
O1027       O  0.41261549  0.97535595  0.57802805    -0.78600
C1028       C  0.44437796  0.90627414  0.59648536     0.83900
C1029       C  0.48783375  0.98418259  0.43290090     0.83600
O1030       O  0.45614020  0.98667669  0.56110494    -0.77600
C1031       C  0.41295506  0.98550343  0.88612899     0.84400
O1032       O  0.45765939  0.93076204  0.57751565    -0.77700
C1033       C  0.44169987  0.90228138  0.87908544     0.84500
C1034       C  0.34749459  0.89281825  0.96281797     0.84800
O1035       O  0.36218181  0.88088123  0.96659239    -0.80100
O1036       O  0.20641750  0.79188993  0.84921677    -0.77600
C1037       C  0.17693378  0.82761652  0.95273437     0.83400
O1038       O  0.25604672  0.89689108  0.82687629    -0.78700
O1039       O  0.25704913  0.88507949  0.54321014    -0.80200
O1040       O  0.23506141  0.78778652  0.96384188    -0.80000
O1041       O  0.24801375  0.80460223  0.81824979    -0.78600
Zn1042     Zn  0.21661806  0.83045155  0.86732850     1.55700
O1043       O  0.23039346  0.81321171  0.54488267    -0.80000
Cd1044     Cd  0.26148198  0.82184658  0.90719479     1.59700
Cd1045     Cd  0.26820033  0.88610925  0.90631096     1.59600
O1046       O  0.30445739  0.85089258  0.93259158    -0.80000
O1047       O  0.24578137  0.84628737  0.91976004    -1.90500
Cd1048     Cd  0.23239430  0.84209367  0.00183673     1.59900
O1049       O  0.30772014  0.89287347  0.92724417    -0.80000
O1050       O  0.19123650  0.82911073  0.99725980    -0.78600
C1051       C  0.23532970  0.88099794  0.79422883     0.83900
C1052       C  0.22174447  0.79072435  0.81010657     0.83600
O1053       O  0.18508278  0.82869800  0.90061663    -0.77600
C1054       C  0.22369136  0.79006043  0.52046072     0.84400
O1055       O  0.22249219  0.85477069  0.79957122    -0.77700
C1056       C  0.31827310  0.87764864  0.93926890     0.84500
C1057       C  0.25370368  0.90342204  0.51807079     0.84800
O1058       O  0.25485925  0.90530061  0.96668595    -0.80100
O1059       O  0.22347681  0.35003281  0.57972758    -0.77600
C1060       C  0.17888651  0.33813581  0.73237094     0.83400
O1061       O  0.24776836  0.43817088  0.59662594    -0.78700
O1062       O  0.23780376  0.41559303  0.81987148    -0.80200
O1063       O  0.25848631  0.34308422  0.72961909    -0.80000
O1064       O  0.26377867  0.35265204  0.58951749    -0.78600
Zn1065     Zn  0.21745881  0.37281100  0.63813388     1.55700
O1066       O  0.25567398  0.36362146  0.81122863    -0.80000
Cd1067     Cd  0.27151084  0.37560483  0.67100365     1.59700
Cd1068     Cd  0.26176180  0.43157468  0.68142141     1.59600
O1069       O  0.30999852  0.40956474  0.69283228    -0.80000
O1070       O  0.24703317  0.39108602  0.68884792    -1.90500
Cd1071     Cd  0.23539114  0.38203809  0.77359353     1.59900
O1072       O  0.30499564  0.44713200  0.70306733    -0.80000
O1073       O  0.19465057  0.35087382  0.77572250    -0.78600
C1074       C  0.22330544  0.42176743  0.57644354     0.83900
C1075       C  0.24034660  0.34245176  0.56390677     0.83600
O1076       O  0.18575297  0.34544758  0.67955404    -0.77600
C1077       C  0.25335099  0.34241891  0.78450484     0.84400
O1078       O  0.20827359  0.39789501  0.59794855    -0.77700
C1079       C  0.31968705  0.43525625  0.70635223     0.84500
C1080       C  0.23005264  0.43104611  0.79579235     0.84800
O1081       O  0.23763165  0.43979353  0.74303213    -0.80100
O1082       O  0.46459798  0.47528386  0.83433253    -0.77600
C1083       C  0.44045888  0.53619246  0.87266480     0.83400
O1084       O  0.40615605  0.41865665  0.81475318    -0.78700
O1085       O  0.36137074  0.47657826  0.74167136    -0.80200
O1086       O  0.46401970  0.54407781  0.71015339    -0.80000
O1087       O  0.48809092  0.51584875  0.79273741    -0.78600
Zn1088     Zn  0.43137164  0.47847337  0.85024364     1.55700
O1089       O  0.42204892  0.52846261  0.67807895    -0.80000
Cd1090     Cd  0.45676028  0.50590775  0.73715962     1.59700
Cd1091     Cd  0.40076500  0.44346613  0.75009843     1.59600
O1092       O  0.46118174  0.48193697  0.67307475    -0.80000
O1093       O  0.42027849  0.48208321  0.77419396    -1.90500
Cd1094     Cd  0.40453547  0.50598035  0.75875144     1.59900
O1095       O  0.42230818  0.44061941  0.67950327    -0.80000
O1096       O  0.42495273  0.53563470  0.82981717    -0.78600
C1097       C  0.40967914  0.42204391  0.87077889     0.83900
C1098       C  0.48708311  0.49506844  0.81610522     0.83600
O1099       O  0.44229418  0.51514836  0.88750375    -0.77600
C1100       C  0.44804364  0.54447764  0.67174404     0.84400
O1101       O  0.40907245  0.44234527  0.89557138    -0.77700
C1102       C  0.44615354  0.45657490  0.65778824     0.84500
C1103       C  0.34915358  0.45065715  0.72668384     0.84800
O1104       O  0.36148814  0.43654104  0.72813842    -0.80100
O1105       O  0.89519373  0.15319603  0.95915808    -0.77600
C1106       C  0.84698584  0.16416984  0.52049380     0.83400
O1107       O  0.92898489  0.24873726  0.53373583    -0.78700
O1108       O  0.87326820  0.20262350  0.64192241    -0.80200
O1109       O  0.90292200  0.13183786  0.67162215    -0.80000
O1110       O  0.90868204  0.13113191  0.52839539    -0.78600
Zn1111     Zn  0.90503987  0.18769448  0.49356418     1.55700
O1112       O  0.87011139  0.14262380  0.67334298    -0.80000
Cd1113     Cd  0.92636044  0.15978106  0.59957606     1.59700
Cd1114     Cd  0.93564393  0.22531166  0.59833008     1.59600
O1115       O  0.96994551  0.18716901  0.61715460    -0.80000
O1116       O  0.91434344  0.18646318  0.57579179    -1.90500
Cd1117     Cd  0.87886793  0.17121446  0.61194973     1.59900
O1118       O  0.97405364  0.22961787  0.61760472    -0.80000
O1119       O  0.85106164  0.14808916  0.55119025    -0.78600
C1120       C  0.92484335  0.24476704  0.97547554     0.83900
C1121       C  0.89506324  0.13171976  0.97842710     0.83600
O1122       O  0.86702409  0.18371837  0.49366355    -0.77600
C1123       C  0.87941722  0.12738419  0.68998479     0.84400
O1124       O  0.92715819  0.22524772  0.95194385    -0.77700
C1125       C  0.98439612  0.21380808  0.62390815     0.84500
C1126       C  0.89085264  0.22381061  0.67078691     0.84800
O1127       O  0.91659502  0.23222263  0.66902111    -0.80100
O1128       O  0.13343097  0.31183449  0.77048540    -0.77600
C1129       C  0.07707612  0.31771181  0.78766321     0.83400
O1130       O  0.08976155  0.21894713  0.72997979    -0.78700
O1131       O  0.02570958  0.25461121  0.64777888    -0.80200
O1132       O  0.12621518  0.32636252  0.61670901    -0.80000
O1133       O  0.14787078  0.29356669  0.70448347    -0.78600
Zn1134     Zn  0.09450402  0.27893848  0.76830115     1.55700
O1135       O  0.08271909  0.31384450  0.59586839    -0.80000
Cd1136     Cd  0.11994781  0.28888507  0.64499065     1.59700
Cd1137     Cd  0.07146952  0.22986324  0.66045008     1.59600
O1138       O  0.12743157  0.26779487  0.58279905    -0.80000
O1139       O  0.08521704  0.26924427  0.68480288    -1.90500
Cd1140     Cd  0.06478390  0.28781028  0.66622478     1.59900
O1141       O  0.09379615  0.22405803  0.58750820    -0.80000
O1142       O  0.07293085  0.31814034  0.73236374    -0.78600
C1143       C  0.09899085  0.22943447  0.78139869     0.83900
C1144       C  0.15269963  0.31296559  0.73945238     0.83600
O1145       O  0.07426243  0.29571926  0.81069985    -0.77600
C1146       C  0.10852505  0.33092311  0.59241076     0.84400
O1147       O  0.09255435  0.24581664  0.80680331    -0.77700
C1148       C  0.11739766  0.24264885  0.56791145     0.84500
C1149       C  0.01436098  0.22829502  0.63975157     0.84800
O1150       O  0.02789946  0.21524210  0.64436849    -0.80100
O1151       O  0.20805953  0.31727020  0.49149139    -0.77600
C1152       C  0.15854225  0.31123506  0.89071875     0.83400
O1153       O  0.12914804  0.22097938  0.99448861    -0.78700
O1154       O  0.14658783  0.24928256  0.78299840    -0.80200
O1155       O  0.24297257  0.31354276  0.86801973    -0.80000
O1156       O  0.23480864  0.30534004  0.00889131    -0.78600
Zn1157     Zn  0.17447389  0.28443351  0.96353931     1.55700
O1158       O  0.21735842  0.29626975  0.78734865    -0.80000
Cd1159     Cd  0.22189123  0.28129664  0.92764876     1.59700
Cd1160     Cd  0.15426344  0.22546869  0.91638412     1.59600
O1161       O  0.22413485  0.24593653  0.90658619    -0.80000
O1162       O  0.18260191  0.26551254  0.90919666    -1.90500
Cd1163     Cd  0.18013077  0.27813350  0.83069568     1.59900
O1164       O  0.18110521  0.20840589  0.89674950    -0.80000
O1165       O  0.17350801  0.30987925  0.85036585    -0.78600
C1166       C  0.13647185  0.23781048  0.53005481     0.83900
C1167       C  0.22954056  0.32054217  0.51699506     0.83600
O1168       O  0.14781286  0.29296900  0.93039131    -0.77600
C1169       C  0.23825136  0.31557718  0.81386581     0.84400
O1170       O  0.16146295  0.25676022  0.53298098    -0.77700
C1171       C  0.20778893  0.22024407  0.89281549     0.84500
C1172       C  0.12399758  0.23060091  0.80502127     0.84800
O1173       O  0.12332925  0.21857665  0.85334704    -0.80100
O1174       O  0.31878702  0.20246209  0.76561144    -0.77600
C1175       C  0.31043594  0.15110963  0.86652245     0.83400
O1176       O  0.21970533  0.12439181  0.76643579    -0.78700
O1177       O  0.24896570  0.14498505  0.97599166    -0.80200
O1178       O  0.31563880  0.23993888  0.89356912    -0.80000
O1179       O  0.30532330  0.23306028  0.75476650    -0.78600
Zn1180     Zn  0.28401682  0.16947773  0.79120294     1.55700
O1181       O  0.29973936  0.21276188  0.97169637    -0.80000
Cd1182     Cd  0.28240619  0.21865018  0.83500500     1.59700
Cd1183     Cd  0.22616490  0.15118199  0.84276621     1.59600
O1184       O  0.24782471  0.22153201  0.85747852    -0.80000
O1185       O  0.26654185  0.17865459  0.84807882    -1.90500
Cd1186     Cd  0.27955210  0.17572421  0.92650970     1.59900
O1187       O  0.20983371  0.17866417  0.86384724    -0.80000
O1188       O  0.30888575  0.16522373  0.90893560    -0.78600
C1189       C  0.23834384  0.12868217  0.72817976     0.83900
C1190       C  0.32274608  0.22515236  0.74463157     0.83600
O1191       O  0.29406551  0.14345265  0.82287429    -0.77600
C1192       C  0.31831820  0.23451839  0.94679286     0.84400
O1193       O  0.25930231  0.15260940  0.72333320    -0.77700
C1194       C  0.22210482  0.20545487  0.86972797     0.88100
C1195       C  0.23160768  0.12170184  0.95379992     0.84800
O1196       O  0.21953052  0.12007924  0.90498371    -0.80100
O1197       O  0.92557047  0.69863863  0.71547643    -0.77600
C1198       C  0.84560443  0.67426266  0.78247718     0.83400
O1199       O  0.90553935  0.77417612  0.77909040    -0.78700
O1200       O  0.86675969  0.74383644  0.89226306    -0.80200
O1201       O  0.90793653  0.68413696  0.93179789    -0.80000
O1202       O  0.92218419  0.67553090  0.79650514    -0.78600
Zn1203     Zn  0.90237691  0.71293944  0.75393167     1.55700
O1204       O  0.86750533  0.68315350  0.92863912    -0.80000
Cd1205     Cd  0.92941131  0.70721569  0.85959408     1.59700
Cd1206     Cd  0.92579148  0.76593457  0.85060669     1.59600
O1207       O  0.96972914  0.74018857  0.87438803    -0.80000
O1208       O  0.91077140  0.72636406  0.83293060    -1.90500
Cd1209     Cd  0.87400562  0.71297670  0.86647477     1.59900
O1210       O  0.96905374  0.78000672  0.86261353    -0.80000
O1211       O  0.84545036  0.69483749  0.80420164    -0.78600
C1212       C  0.89312377  0.76072539  0.73149351     0.83900
C1213       C  0.92099892  0.67623990  0.74012358     0.83600
O1214       O  0.86766971  0.67640338  0.76349566    -0.77600
C1215       C  0.88300409  0.67441133  0.94845737     0.84400
O1216       O  0.89436054  0.73976975  0.71234814    -0.77700
C1217       C  0.98199216  0.76683382  0.87344850     0.84500
C1218       C  0.88102198  0.75922529  0.93426642     0.84800
O1219       O  0.90723717  0.77000547  0.93184742    -0.80100
O1220       O  0.13062643  0.80895534  0.98235903    -0.77600
C1221       C  0.10562256  0.86490766  0.51529297     0.83400
O1222       O  0.07245236  0.75101456  0.95872111    -0.78700
O1223       O  0.02567485  0.80852340  0.89508437    -0.80200
O1224       O  0.12612476  0.87580059  0.86510084    -0.80000
O1225       O  0.15140432  0.84790482  0.93406245    -0.78600
Zn1226     Zn  0.09620930  0.81041469  0.99774521     1.55700
O1227       O  0.08638824  0.85949275  0.82287238    -0.80000
Cd1228     Cd  0.11946581  0.83724848  0.88220505     1.59700
Cd1229     Cd  0.06466375  0.77506556  0.89629746     1.59600
O1230       O  0.12278469  0.81447646  0.81351846    -0.80000
O1231       O  0.08423018  0.81348270  0.92180894    -1.90500
Cd1232     Cd  0.06909207  0.83795300  0.90557541     1.59900
O1233       O  0.08440495  0.77277606  0.82104998    -0.80000
O1234       O  0.09030763  0.86774268  0.97611509    -0.78600
C1235       C  0.07476357  0.75175359  0.51203752     0.83900
C1236       C  0.15194715  0.82825070  0.95870001     0.83600
O1237       O  0.10768386  0.84383696  0.52831500    -0.77600
C1238       C  0.11250192  0.87567242  0.82130061     0.84400
O1239       O  0.07402945  0.77206428  0.53614345    -0.77700
C1240       C  0.10769683  0.78919875  0.79743672     0.84500
C1241       C  0.01240511  0.78212084  0.88472930     0.84800
O1242       O  0.02437045  0.76762970  0.88375199    -0.80100
O1243       O  0.31707469  0.12995528  0.52150449    -0.77600
C1244       C  0.31817931  0.07124997  0.98787714     0.83400
O1245       O  0.21829971  0.08013124  0.51732108    -0.78700
O1246       O  0.25177128  0.01727748  0.60991987    -0.80200
O1247       O  0.32339274  0.11141688  0.66458719    -0.80000
O1248       O  0.29715756  0.14163131  0.59055143    -0.78600
Zn1249     Zn  0.28448154  0.09310629  0.50466919     1.55700
O1250       O  0.31109038  0.06717797  0.67167298    -0.80000
Cd1251     Cd  0.28737795  0.10760728  0.63580643     1.59700
Cd1252     Cd  0.22997194  0.06522200  0.59230664     1.59600
O1253       O  0.26379290  0.10770757  0.70390304    -0.80000
O1254       O  0.26993231  0.07761123  0.58024602    -1.90500
Cd1255     Cd  0.28701498  0.05510612  0.59559039     1.59900
O1256       O  0.22371630  0.09008253  0.65804176    -0.80000
O1257       O  0.31887048  0.06480764  0.53114043    -0.78600
C1258       C  0.23270991  0.09784426  0.97755263     0.83900
C1259       C  0.31660195  0.14799384  0.55470102     0.83600
O1260       O  0.29600967  0.06702217  0.96293090    -0.77600
C1261       C  0.32777097  0.09260740  0.68284080     0.84400
O1262       O  0.25197209  0.09463900  0.95584926    -0.77700
C1263       C  0.24080199  0.10643089  0.69694120     0.84500
C1264       C  0.22585801  0.00753718  0.61871675     0.84800
O1265       O  0.21395425  0.02209588  0.61310947    -0.80100
O1266       O  0.13989814  0.87190180  0.75065950    -0.77600
C1267       C  0.15880062  0.83809405  0.59765190     0.83400
O1268       O  0.23270326  0.91757860  0.74295521    -0.78700
O1269       O  0.22015935  0.91720771  0.52374350    -0.80200
O1270       O  0.12431881  0.89726178  0.59509336    -0.80000
O1271       O  0.13388248  0.90798297  0.73956465    -0.78600
Zn1272     Zn  0.16706876  0.87400875  0.69295400     1.55700
O1273       O  0.15096120  0.90114366  0.51920144    -0.80000
Cd1274     Cd  0.15575759  0.92116844  0.65709490     1.59700
Cd1275     Cd  0.22030300  0.92888691  0.66566305     1.59600
O1276       O  0.18381944  0.96413832  0.63879074    -0.80000
O1277       O  0.18081752  0.90593832  0.64820495    -1.90500
Cd1278     Cd  0.18138510  0.89797352  0.56310974     1.59900
O1279       O  0.22555788  0.96764892  0.64998460    -0.80000
O1280       O  0.17260918  0.85819155  0.56332003    -0.78600
C1281       C  0.22242556  0.89179428  0.75364428     0.83900
C1282       C  0.12856639  0.88562469  0.76620459     0.83600
O1283       O  0.14821580  0.84053202  0.64485336    -0.77600
C1284       C  0.12716820  0.89079386  0.54239386     0.84400
O1285       O  0.19883873  0.87392683  0.73335517    -0.77700
C1286       C  0.21044808  0.97812960  0.63724104     0.84500
C1287       C  0.23902405  0.91516616  0.55020251     0.84800
O1288       O  0.24171228  0.91827357  0.60587473    -0.80100
O1289       O  0.83704416  0.68446286  0.58820193    -0.77600
C1290       C  0.77473903  0.66739572  0.99867585     0.83400
O1291       O  0.85712741  0.77149931  0.50639483    -0.78700
O1292       O  0.76832317  0.74102804  0.60379631    -0.80200
O1293       O  0.77824371  0.69588236  0.72531445    -0.80000
O1294       O  0.82616501  0.68532030  0.68214127    -0.78600
Zn1295     Zn  0.83162965  0.71169803  0.55144503     1.55700
O1296       O  0.75555565  0.67477591  0.64382315    -0.80000
Cd1297     Cd  0.81653117  0.71580859  0.68521782     1.59700
Cd1298     Cd  0.83922718  0.76567640  0.59392779     1.59600
O1299       O  0.84719164  0.74944801  0.73006229    -0.80000
O1300       O  0.81487498  0.72524748  0.60207412    -1.90500
Cd1301     Cd  0.77525583  0.70799312  0.58521663     1.59900
O1302       O  0.87223508  0.77292104  0.65296562    -0.80000
O1303       O  0.76473821  0.68543238  0.50472749    -0.78600
C1304       C  0.86543079  0.75474712  0.98978023     0.83900
C1305       C  0.83330642  0.67529880  0.63993524     0.83600
O1306       O  0.79736127  0.67290463  0.02327771    -0.77600
C1307       C  0.75964125  0.67433499  0.69900549     0.84400
O1308       O  0.85415569  0.72998898  0.00707327    -0.77700
C1309       C  0.87053622  0.76354674  0.70529938     0.84500
C1310       C  0.78359757  0.76688066  0.61746750     0.84800
O1311       O  0.81029493  0.77945946  0.61579119    -0.80100
O1312       O  0.74146620  0.84600970  0.79810889    -0.77600
C1313       C  0.67730621  0.82878143  0.72870677     0.83400
O1314       O  0.67894414  0.75095841  0.72239718    -0.78700
O1315       O  0.68724576  0.81421302  0.58667063    -0.80200
O1316       O  0.77459926  0.86044656  0.58694440    -0.80000
O1317       O  0.77891155  0.86675491  0.73870249    -0.78600
Zn1318     Zn  0.71496620  0.81008697  0.75926328     1.55700
O1319       O  0.74718940  0.87555645  0.61567906    -0.80000
Cd1320     Cd  0.76918180  0.83753991  0.66705289     1.59700
Cd1321     Cd  0.70998473  0.77539172  0.65780992     1.59600
O1322       O  0.78250751  0.80791218  0.65066388    -0.80000
O1323       O  0.72952563  0.81399029  0.68263011    -1.90500
Cd1324     Cd  0.71699382  0.83824010  0.64809785     1.59900
O1325       O  0.74231893  0.76776297  0.63672171    -0.80000
O1326       O  0.69792829  0.84958386  0.70732401    -0.78600
C1327       C  0.67917182  0.75413815  0.77862186     0.83900
C1328       C  0.76431209  0.86709730  0.78264100     0.83600
O1329       O  0.67885026  0.80808655  0.74471584    -0.77600
C1330       C  0.76451430  0.87622975  0.57921056     0.84400
O1331       O  0.70076589  0.77370373  0.80311048    -0.77700
C1332       C  0.76889140  0.78193235  0.63610107     0.84500
C1333       C  0.67755467  0.78934625  0.56850850     0.84800
O1334       O  0.68613779  0.77350328  0.58703862    -0.80100
O1335       O  0.85024872  0.14476960  0.83467350    -0.77600
C1336       C  0.86007906  0.10469499  0.73004572     0.83400
O1337       O  0.76189689  0.06964231  0.75663918    -0.78700
O1338       O  0.81412702  0.02678369  0.86358493    -0.80200
O1339       O  0.84885852  0.09778845  0.97996560    -0.80000
O1340       O  0.82735222  0.13834822  0.91834954    -0.78600
Zn1341     Zn  0.82220735  0.10983548  0.80118132     1.55700
O1342       O  0.87339956  0.09577548  0.90540342    -0.80000
Cd1343     Cd  0.81770747  0.09830718  0.93372411     1.59700
Cd1344     Cd  0.77441603  0.05912452  0.83749319     1.59600
O1345       O  0.78048415  0.07982250  0.97667150    -0.80000
O1346       O  0.81396412  0.08271023  0.85419967    -1.90500
Cd1347     Cd  0.84165775  0.07073891  0.84411942     1.59900
O1348       O  0.75486149  0.07232189  0.89684445    -0.80000
O1349       O  0.86644897  0.09127470  0.76615739    -0.78600
C1350       C  0.76977422  0.09536551  0.75012207     0.83900
C1351       C  0.84147254  0.15369955  0.87578483     0.83600
O1352       O  0.83589819  0.10087973  0.73064437    -0.77600
C1353       C  0.87199775  0.10547219  0.95570855     0.84400
O1354       O  0.78986585  0.11340483  0.78047362    -0.77700
C1355       C  0.76036308  0.07962581  0.95076758     0.84500
C1356       C  0.78749723  0.01186858  0.86955253     0.84800
O1357       O  0.77112933  0.02111137  0.85798089    -0.80100
O1358       O  0.69745924  0.88732323  0.52988673    -0.77600
C1359       C  0.68167203  0.84171035  0.87028699     0.83400
O1360       O  0.77768700  0.91457036  0.00853643    -0.78700
O1361       O  0.75601342  0.90379880  0.78496697    -0.80200
O1362       O  0.68224238  0.92113695  0.87225347    -0.80000
O1363       O  0.69322488  0.92149188  0.01065047    -0.78600
Zn1364     Zn  0.71764704  0.87909227  0.96064353     1.55700
O1365       O  0.70234799  0.91928331  0.78968815    -0.80000
Cd1366     Cd  0.71524761  0.93307226  0.92998553     1.59700
Cd1367     Cd  0.77194149  0.92642059  0.92083013     1.59600
O1368       O  0.74821880  0.97235757  0.90786296    -0.80000
O1369       O  0.73162368  0.91015408  0.91211372    -1.90500
Cd1370     Cd  0.72206831  0.90025460  0.82845456     1.59900
O1371       O  0.78643149  0.96900875  0.89609957    -0.80000
O1372       O  0.69124885  0.85998842  0.83041769    -0.78600
C1373       C  0.76445102  0.88809301  0.52119268     0.83900
C1374       C  0.68632180  0.90198912  0.53844841     0.83600
O1375       O  0.69159917  0.84589472  0.92149749    -0.77600
C1376       C  0.68163565  0.91769199  0.81657488     0.84400
O1377       O  0.74509679  0.87154982  0.48764117    -0.77700
C1378       C  0.77367038  0.98279620  0.89262101     0.84500
C1379       C  0.76911277  0.89337658  0.80899758     0.84800
O1380       O  0.77865546  0.90052861  0.86151952    -0.80100
O1381       O  0.50535874  0.01966420  0.74749193    -0.77600
C1382       C  0.45031759  0.01448103  0.63097150     0.83400
O1383       O  0.52867075  0.10856545  0.66549681    -0.78700
O1384       O  0.44031583  0.07767328  0.76146553    -0.80200
O1385       O  0.44938996  0.03192657  0.88218237    -0.80000
O1386       O  0.50126807  0.02578490  0.84314329    -0.78600
Zn1387     Zn  0.50169752  0.04749620  0.70820679     1.55700
O1388       O  0.42589766  0.01285975  0.79968929    -0.80000
Cd1389     Cd  0.48821980  0.05385279  0.84342908     1.59700
Cd1390     Cd  0.51069788  0.10298415  0.75248080     1.59600
O1391       O  0.51694894  0.08907310  0.88820066    -0.80000
O1392       O  0.48628267  0.06223698  0.75922051    -1.90500
Cd1393     Cd  0.44690549  0.04504558  0.74051894     1.59900
O1394       O  0.54359742  0.11095848  0.81238883    -0.80000
O1395       O  0.43543808  0.02187356  0.65988355    -0.78600
C1396       C  0.54151851  0.09563810  0.65238240     0.83900
C1397       C  0.50477638  0.01299573  0.80063775     0.83600
O1398       O  0.47591953  0.02509015  0.64239233    -0.77600
C1399       C  0.42926602  0.01188279  0.85497549     0.84400
O1400       O  0.53928723  0.07652992  0.68532806    -0.77700
C1401       C  0.54083422  0.10202179  0.86534295     0.84500
C1402       C  0.45502382  0.10316626  0.77793944     0.84800
O1403       O  0.48172058  0.11648753  0.77608798    -0.80100
O1404       O  0.35119326  0.15490574  0.90464472    -0.77600
C1405       C  0.34465979  0.08699923  0.95469936     0.83400
O1406       O  0.44199465  0.20071265  0.89233438    -0.78700
O1407       O  0.41345186  0.09901784  0.81225740    -0.80200
O1408       O  0.37107885  0.12630769  0.71633604    -0.80000
O1409       O  0.33713652  0.13710749  0.81534711    -0.78600
Zn1410     Zn  0.38086783  0.14591265  0.92178705     1.55700
O1411       O  0.35052826  0.08697306  0.76487531    -0.80000
Cd1412     Cd  0.37547038  0.14904853  0.78886108     1.59700
Cd1413     Cd  0.43251774  0.16876339  0.82646414     1.59600
O1414       O  0.39576434  0.19021001  0.76954746    -0.80000
O1415       O  0.39386199  0.14039082  0.84865705    -1.90500
Cd1416     Cd  0.37795080  0.10018314  0.83610660     1.59900
O1417       O  0.43423954  0.19103160  0.74725520    -0.80000
O1418       O  0.34892246  0.07816749  0.90554228    -0.78600
C1419       C  0.43009481  0.20051127  0.94132712     0.83900
C1420       C  0.33356483  0.14663741  0.86305594     0.83600
O1421       O  0.36073211  0.11175594  0.97222552    -0.77600
C1422       C  0.35161516  0.10155550  0.72107406     0.84400
O1423       O  0.41112740  0.17822128  0.96390502    -0.77700
C1424       C  0.41742353  0.19976466  0.73860684     0.84500
C1425       C  0.43909015  0.11611952  0.80117958     0.84800
O1426       O  0.45027598  0.14270080  0.80816745    -0.80100
O1427       O  0.47522386  0.46160512  0.93527200    -0.77600
C1428       C  0.53336599  0.43491073  0.90182704     0.83400
O1429       O  0.41804188  0.40382386  0.96027439    -0.78700
O1430       O  0.47498152  0.35779441  0.53587956    -0.80200
O1431       O  0.54226294  0.45971841  0.55772055    -0.80000
O1432       O  0.51494627  0.48122206  0.47103861    -0.78600
Zn1433     Zn  0.47649706  0.42656853  0.92237108     1.55700
O1434       O  0.52774733  0.41942957  0.59785814    -0.80000
Cd1435     Cd  0.50407102  0.45250749  0.53294052     1.59700
Cd1436     Cd  0.44156157  0.39739439  0.52547010     1.59600
O1437       O  0.48136497  0.45973399  0.59538530    -0.80000
O1438       O  0.47952535  0.41550516  0.49984946    -1.90500
Cd1439     Cd  0.50383999  0.40049536  0.51857674     1.59900
O1440       O  0.44045989  0.42016574  0.59605640    -0.80000
O1441       O  0.53333078  0.42038329  0.94613952    -0.78600
C1442       C  0.42150911  0.40726214  0.90428411     0.83900
C1443       C  0.49615374  0.48329800  0.95378379     0.83600
O1444       O  0.51200605  0.43547890  0.88454236    -0.77600
C1445       C  0.54384725  0.44567816  0.59911775     0.84400
O1446       O  0.44015041  0.40406874  0.87943842    -0.77700
C1447       C  0.45664454  0.44490390  0.61399701     0.84500
C1448       C  0.44913728  0.34560994  0.54937851     0.84800
O1449       O  0.43498222  0.35793564  0.54722077    -0.80100
O1450       O  0.36352133  0.23033989  0.70507938    -0.77600
C1451       C  0.33945431  0.17579051  0.55665570     0.83400
O1452       O  0.43388066  0.24101537  0.67601217    -0.78700
O1453       O  0.41668439  0.23378710  0.94213162    -0.80200
O1454       O  0.34326401  0.25409597  0.52339963    -0.80000
O1455       O  0.34845236  0.25596993  0.66435175    -0.78600
Zn1456     Zn  0.37421784  0.21803749  0.63301806     1.55700
O1457       O  0.36689617  0.25547561  0.95177569    -0.80000
Cd1458     Cd  0.37383685  0.26659529  0.58780682     1.59700
Cd1459     Cd  0.43149690  0.25823228  0.59155667     1.59600
O1460       O  0.40778475  0.30557965  0.57489422    -0.80000
O1461       O  0.39187955  0.24457477  0.57785609    -1.90500
Cd1462     Cd  0.38228471  0.22586015  0.50070605     1.59900
O1463       O  0.44618784  0.30173245  0.57336016    -0.80000
O1464       O  0.35897989  0.18439014  0.51950488    -0.78600
C1465       C  0.41750093  0.21497739  0.68527029     0.83900
C1466       C  0.34669800  0.23917641  0.70426397     0.83600
O1467       O  0.33988528  0.19075015  0.59903460    -0.77600
C1468       C  0.34475205  0.25038937  0.97799500     0.84400
O1469       O  0.39665069  0.20134648  0.65242749    -0.77700
C1470       C  0.43385424  0.31594189  0.56728498     0.84500
C1471       C  0.43182855  0.22580487  0.96683737     0.84800
O1472       O  0.44155503  0.23461535  0.53164923    -0.80100
O1473       O  0.54454062  0.47466260  0.67083932    -0.77600
C1474       C  0.51180013  0.49371374  0.81769254     0.83400
O1475       O  0.59039503  0.56554350  0.67906400    -0.78700
O1476       O  0.59067331  0.55237257  0.89871447    -0.80200
O1477       O  0.56742979  0.45565657  0.82563795    -0.80000
O1478       O  0.57806849  0.46500007  0.68019343    -0.78600
Zn1479     Zn  0.54759524  0.50074637  0.72996880     1.55700
O1480       O  0.56780616  0.48114483  0.90194771    -0.80000
Cd1481     Cd  0.59280151  0.48714223  0.76425815     1.59700
Cd1482     Cd  0.60278294  0.55360631  0.75724798     1.59600
O1483       O  0.63608243  0.51500851  0.78520115    -0.80000
O1484       O  0.57950825  0.51382175  0.77349657    -1.90500
Cd1485     Cd  0.56956673  0.51411614  0.85743791     1.59900
O1486       O  0.64144080  0.55791416  0.77658618    -0.80000
O1487       O  0.53137397  0.50981672  0.85158286    -0.78600
C1488       C  0.56459081  0.55514992  0.66822216     0.83900
C1489       C  0.55631791  0.46172707  0.65385240     0.83600
O1490       O  0.51494265  0.47973527  0.77800402    -0.77600
C1491       C  0.55921220  0.45763847  0.87730781     0.84400
O1492       O  0.54680102  0.53212735  0.69063161    -0.77700
C1493       C  0.65091515  0.54178732  0.78924362     0.84500
C1494       C  0.58708426  0.57048940  0.87318783     0.84800
O1495       O  0.59072060  0.57394070  0.81773754    -0.80100
O1496       O  0.81604699  0.63872195  0.84082023    -0.77600
C1497       C  0.76388406  0.64469026  0.95417154     0.83400
O1498       O  0.74863977  0.55161708  0.92562438    -0.78700
O1499       O  0.69101383  0.58175432  0.82421321    -0.80200
O1500       O  0.74499185  0.62653748  0.70406004    -0.80000
O1501       O  0.80351162  0.63770599  0.74753168    -0.78600
Zn1502     Zn  0.78337887  0.61188828  0.87903555     1.55700
O1503       O  0.74317171  0.64733647  0.78596817    -0.80000
Cd1504     Cd  0.76334811  0.60663762  0.74474503     1.59700
Cd1505     Cd  0.73637841  0.55697856  0.83792142     1.59600
O1506       O  0.75904415  0.57194286  0.70168205    -0.80000
O1507       O  0.75289141  0.59750729  0.82854359    -1.90500
Cd1508     Cd  0.73046145  0.61460432  0.84489914     1.59900
O1509       O  0.76145531  0.54906925  0.77866297    -0.80000
O1510       O  0.74136556  0.63679810  0.92599343    -0.78600
C1511       C  0.77445089  0.56425753  0.93885542     0.83900
C1512       C  0.82095869  0.64804551  0.78914358     0.83600
O1513       O  0.77947912  0.63489337  0.94207382    -0.77600
C1514       C  0.74708437  0.64771535  0.73050065     0.84400
O1515       O  0.79157179  0.58328070  0.90596083    -0.77700
C1516       C  0.76887890  0.55841777  0.72623873     0.84500
C1517       C  0.68017780  0.55589875  0.81083777     0.84800
O1518       O  0.69372310  0.54287969  0.81483558    -0.80100
O1519       O  0.88779302  0.62792066  0.72835963    -0.77600
C1520       C  0.83309260  0.64986343  0.64682085     0.83400
O1521       O  0.79592689  0.54882906  0.65680721    -0.78700
O1522       O  0.78593826  0.58081141  0.03460972    -0.80200
O1523       O  0.88923114  0.64345095  0.51285952    -0.80000
O1524       O  0.91070828  0.65036932  0.64883284    -0.78600
Zn1525     Zn  0.85187780  0.61293443  0.68229541     1.55700
O1526       O  0.84704575  0.64203650  0.00928110    -0.80000
Cd1527     Cd  0.88728601  0.61967054  0.58311913     1.59700
Cd1528     Cd  0.82522703  0.55883844  0.58535539     1.59600
O1529       O  0.89671849  0.58893321  0.56294113    -0.80000
O1530       O  0.84872044  0.59840973  0.60545260    -1.90500
Cd1531     Cd  0.82408316  0.60954622  0.56920745     1.59900
O1532       O  0.85661655  0.54798473  0.56955259    -0.80000
O1533       O  0.81261836  0.62848612  0.62682493    -0.78600
C1534       C  0.79521269  0.56311647  0.70142346     0.83900
C1535       C  0.90728794  0.64977191  0.70485084     0.83600
O1536       O  0.85353292  0.64894611  0.66654933    -0.77600
C1537       C  0.87183807  0.65192072  0.99139426     0.84400
O1538       O  0.81604367  0.58589038  0.71878450    -0.77700
C1539       C  0.88289011  0.56235539  0.55942614     0.84500
C1540       C  0.78573972  0.56380115  0.99734820     0.84800
O1541       O  0.80170069  0.55347008  0.50442797    -0.80100
O1542       O  0.98587953  0.51986876  0.93748958    -0.77600
C1543       C  0.90110198  0.46048877  0.89715822     0.83400
O1544       O  0.98549123  0.57704626  0.96078532    -0.78700
O1545       O  0.88544132  0.52232386  0.52952555    -0.80200
O1546       O  0.92007919  0.45542950  0.56312132    -0.80000
O1547       O  0.97205336  0.48338815  0.47741965    -0.78600
Zn1548     Zn  0.94990838  0.51768805  0.92243242     1.55700
O1549       O  0.89361562  0.47120004  0.59424921    -0.80000
Cd1550     Cd  0.95100412  0.49321645  0.53419243     1.59700
Cd1551     Cd  0.95810558  0.55598660  0.52389176     1.59600
O1552       O  0.97932468  0.51649139  0.59813220    -0.80000
O1553       O  0.93878027  0.51744631  0.49878675    -1.90500
Cd1554     Cd  0.89922733  0.49373888  0.51444793     1.59900
O1555       O  0.98132936  0.55761676  0.59595862    -0.80000
O1556       O  0.88631439  0.46051788  0.94103286    -0.78600
C1557       C  0.98563285  0.57410169  0.90460174     0.83900
C1558       C  0.98809948  0.49974518  0.95482552     0.83600
O1559       O  0.92393267  0.48177702  0.88246910    -0.77600
C1560       C  0.90319168  0.45495697  0.60054886     0.84400
O1561       O  0.96441520  0.55434201  0.87936756    -0.77700
C1562       C  0.98920969  0.54140419  0.61591126     0.84500
C1563       C  0.89857600  0.54832072  0.54292973     0.84800
O1564       O  0.92514642  0.56309142  0.54259387    -0.80100
O1565       O  0.81625864  0.22679831  0.96602908    -0.77600
C1566       C  0.84320705  0.18000452  0.86721152     0.83400
O1567       O  0.91381626  0.26282720  0.88966242    -0.78700
O1568       O  0.85485514  0.22798744  0.71248796    -0.80200
O1569       O  0.80031666  0.24114138  0.75400216    -0.80000
O1570       O  0.79449277  0.24029966  0.90298142    -0.78600
Zn1571     Zn  0.84972406  0.23247412  0.92310801     1.55700
O1572       O  0.79314292  0.20122242  0.78507388    -0.80000
Cd1573     Cd  0.82429669  0.26069393  0.83253082     1.59700
Cd1574     Cd  0.88939849  0.26909912  0.82659057     1.59600
O1575       O  0.85234413  0.30433175  0.81347841    -0.80000
O1576       O  0.85043281  0.24694111  0.84709508    -1.90500
Cd1577     Cd  0.83468667  0.21649560  0.79081458     1.59900
O1578       O  0.89396679  0.30730199  0.80697890    -0.80000
O1579       O  0.84169923  0.18658164  0.81483452    -0.78600
C1580       C  0.90856334  0.25509936  0.94353118     0.83900
C1581       C  0.79469257  0.22685337  0.94901793     0.83600
O1582       O  0.84415736  0.19469449  0.91091214    -0.77600
C1583       C  0.78780907  0.21478212  0.74846529     0.84400
O1584       O  0.88636607  0.25128324  0.96777280    -0.77700
C1585       C  0.87851296  0.31796826  0.80177595     0.84500
C1586       C  0.88046972  0.23628933  0.71236506     0.84800
O1587       O  0.89654919  0.25222723  0.75246477    -0.80100
O1588       O  0.97882509  0.48181177  0.75544124    -0.77600
C1589       C  0.98284944  0.43085233  0.63952598     0.83400
O1590       O  0.89030218  0.41688824  0.66910224    -0.78700
O1591       O  0.91850137  0.35760054  0.76679835    -0.80200
O1592       O  0.96637672  0.41410391  0.88882705    -0.80000
O1593       O  0.97175473  0.47185618  0.85080242    -0.78600
Zn1594     Zn  0.95071522  0.45011655  0.71550877     1.55700
O1595       O  0.98485832  0.40848807  0.80699680    -0.80000
Cd1596     Cd  0.94415045  0.43032384  0.84926452     1.59700
Cd1597     Cd  0.89547272  0.40396379  0.75535080     1.59600
O1598       O  0.90858905  0.42312990  0.89172131    -0.80000
O1599       O  0.93585536  0.41971435  0.76500059    -1.90500
Cd1600     Cd  0.95232814  0.39678133  0.74754060     1.59900
O1601       O  0.88751017  0.42865358  0.81551182    -0.80000
O1602       O  0.97520384  0.40827481  0.66739590    -0.78600
C1603       C  0.90340002  0.44295231  0.65794288     0.83900
C1604       C  0.98496855  0.48812628  0.80892814     0.83600
O1605       O  0.97246688  0.44601744  0.65089939    -0.77600
C1606       C  0.98624394  0.41381406  0.86208588     0.84400
O1607       O  0.92254117  0.45950520  0.69183679    -0.77700
C1608       C  0.89610785  0.43444432  0.86886927     0.84500
C1609       C  0.89288447  0.34724394  0.78061160     0.84800
O1610       O  0.88036172  0.36124212  0.77744669    -0.80100
O1611       O  0.59102096  0.03421627  0.86264941    -0.77600
C1612       C  0.51375513  0.01099262  0.94702287     0.83400
O1613       O  0.57655282  0.11126243  0.93736605    -0.78700
O1614       O  0.53624170  0.07861933  0.55713050    -0.80200
O1615       O  0.57740010  0.01931572  0.58180061    -0.80000
O1616       O  0.59800352  0.01409939  0.93883807    -0.78600
Zn1617     Zn  0.56985420  0.04777440  0.91227678     1.55700
O1618       O  0.53727488  0.01893138  0.58157213    -0.80000
Cd1619     Cd  0.59918647  0.04321250  0.51140041     1.59700
Cd1620     Cd  0.59613992  0.10168603  0.50480734     1.59600
O1621       O  0.63867188  0.07589926  0.53491046    -0.80000
O1622       O  0.57997483  0.06204168  0.48649091    -1.90500
Cd1623     Cd  0.54312633  0.04878393  0.52136344     1.59900
O1624       O  0.63908034  0.11615527  0.52276288    -0.80000
O1625       O  0.51294206  0.02996572  0.46147263    -0.78600
C1626       C  0.56186892  0.09697427  0.89262278     0.83900
C1627       C  0.59202325  0.01372672  0.88414142     0.83600
O1628       O  0.53481304  0.01207899  0.92445446    -0.77600
C1629       C  0.55279508  0.01003268  0.59999321     0.84400
O1630       O  0.56012599  0.07423916  0.87647181    -0.77700
C1631       C  0.65107985  0.10254477  0.53771386     0.84500
C1632       C  0.55310009  0.09590618  0.59389708     0.84800
O1633       O  0.57895230  0.10619587  0.58573207    -0.80100
O1634       O  0.77745351  0.13122776  0.68715729    -0.77600
C1635       C  0.82099088  0.16312787  0.52915732     0.83400
O1636       O  0.75126105  0.19039579  0.67483537    -0.78700
O1637       O  0.75808811  0.18111628  0.95273996    -0.80200
O1638       O  0.74160589  0.08752029  0.53629121    -0.80000
O1639       O  0.73667681  0.09320286  0.67678340    -0.78600
Zn1640     Zn  0.78326870  0.15926089  0.62677757     1.55700
O1641       O  0.74745110  0.11358522  0.95423142    -0.80000
Cd1642     Cd  0.72855364  0.10692598  0.59530285     1.59700
Cd1643     Cd  0.73793036  0.17186228  0.58807903     1.59600
O1644       O  0.68995433  0.10123503  0.57315884    -0.80000
O1645       O  0.75305546  0.14682522  0.57787250    -1.90500
Cd1646     Cd  0.76396576  0.14943246  0.49271455     1.59900
O1647       O  0.69493277  0.14379011  0.56410751    -0.80000
O1648       O  0.80495265  0.15998518  0.48653698    -0.78600
C1649       C  0.77642845  0.20044820  0.69173604     0.83900
C1650       C  0.76004170  0.10670805  0.70279038     0.83600
O1651       O  0.81444262  0.16336398  0.58252560    -0.77600
C1652       C  0.74755666  0.09357870  0.98055693     0.84400
O1653       O  0.79263107  0.19469481  0.66443705    -0.77700
C1654       C  0.68032140  0.11702456  0.55960150     0.84500
C1655       C  0.76891367  0.20496930  0.97675540     0.84800
O1656       O  0.76284431  0.20521773  0.52956583    -0.80100
loop_ 
_geom_bond_atom_site_label_1 
_geom_bond_atom_site_label_2 
_geom_bond_distance 
_geom_bond_site_symmetry_2 
_ccdc_geom_bond_type 
O1           C17   1.263       .  A
O1           Zn7   1.926       .  S
C2           O18   1.256       .  A
C2          O843   1.266       .  A
C2         C1558   1.432   1_455  S
O3           C16   1.287       .  A
O3         Cd838   2.139       .  S
O4           C22   1.273       .  A
O4          Cd13   2.068       .  S
O5           C19   1.281       .  A
O5           Cd9   2.138       .  S
O6           C17   1.288       .  A
O6         Cd837   2.171       .  S
Zn7          O18   1.945   1_554  S
Zn7          O20   2.000       .  S
Zn7          O12   1.852   1_554  S
O8           C19   1.274       .  A
O8          Cd13   2.069       .  S
Cd9          O11   2.188       .  S
Cd9         O834   2.189       .  S
Cd9         O840   1.994       .  S
Cd10         O14   2.111       .  S
Cd10         O23   2.093       .  S
Cd10        O831   2.125       .  S
Cd10        O840   1.963       .  S
O11          C21   1.300       .  A
O12        Cd837   1.989   1_556  S
O12        Cd838   1.968   1_556  S
O12        Cd841   1.974       .  S
Cd13         O15   2.043       .  S
Cd13        O840   1.980       .  S
O14          C21   1.294       .  A
O15         C830   1.266       .  A
C16          O20   1.275       .  A
C16         C761   1.489   1_455  S
C17          C68   1.474       .  S
C19          C62   1.475       .  S
C21          C44   1.508       .  S
C22          O23   1.270       .  A
C22         C778   1.479   1_455  S
O24          C40   1.275       .  A
O24         Zn30   1.979       .  S
C25          O41   1.267       .  A
C25          O38   1.258       .  A
C25         C324   1.446       .  S
O26          C39   1.280       .  A
O26         Cd33   2.140       .  S
O27          C45   1.271       .  A
O27        Cd864   2.022   1_554  S
O28         C870   1.282       .  A
O28         Cd32   2.182       .  S
O29          C40   1.294       .  A
O29         Cd32   2.180       .  S
Zn30         O41   2.007       .  S
Zn30         O43   2.035       .  S
Zn30         O35   1.895       .  S
O31          C42   1.262   1_556  A
O31        Cd864   2.052       .  S
Cd32         O34   2.203       .  S
Cd32         O35   2.013       .  S
Cd33         O37   2.087       .  S
Cd33         O46   2.055       .  S
Cd33         O35   1.952       .  S
O34          C44   1.301       .  A
O35         Cd36   1.938       .  S
Cd36         O38   1.993       .  S
Cd36        O855   2.018       .  S
Cd36        O859   2.047       .  S
O37          C44   1.287       .  A
C39          O43   1.277       .  A
C39         C301   1.496       .  S
C40         C252   1.484       .  S
C42         O856   1.282       .  A
C42         C246   1.477       .  S
C45         O874   1.272       .  A
C45         C318   1.452       .  S
O46         C873   1.271       .  A
O47          C63   1.278       .  A
O47         Zn53   2.034       .  S
C48          O64   1.259       .  A
C48          O61   1.253       .  A
C48         C776   1.431   1_455  S
O49          C62   1.295       .  A
O49         Cd56   2.164       .  S
O50          C68   1.258       .  A
O50         Cd59   2.051       .  S
O51          C65   1.278       .  A
O51         Cd55   2.059       .  S
O52          C63   1.282       .  A
O52         Cd55   2.158       .  S
Zn53         O64   2.007       .  S
Zn53         O66   1.989       .  S
Zn53         O58   1.890       .  S
O54          C65   1.281       .  A
O54         Cd59   2.079       .  S
Cd55         O57   2.111       .  S
Cd55         O58   1.938       .  S
Cd56         O60   2.160       .  S
Cd56         O69   2.164       .  S
Cd56         O58   1.979       .  S
O57          C67   1.291       .  A
O58         Cd59   1.971       .  S
Cd59         O61   1.986       .  S
O60          C67   1.296       .  A
C62          O66   1.280       .  A
C63         C729   1.510   1_455  S
C65         C734   1.465   1_455  S
C67          C91   1.499       .  S
C68          O69   1.279       .  A
O70          C86   1.259       .  A
O70         Zn76   2.007       .  S
C71          O87   1.283       .  A
C71          O84   1.295       .  A
C71         C226   1.483       .  S
O72          C85   1.280       .  A
O72         Cd79   2.148       .  S
O73          C91   1.297       .  A
O73         Cd82   2.166       .  S
O74          C88   1.259       .  A
O74         Cd78   2.056       .  S
O75          C86   1.252       .  A
O75         Cd78   1.980       .  S
Zn76         O87   2.015       .  S
Zn76         O89   2.039       .  S
Zn76         O81   1.903       .  S
O77          C88   1.281       .  A
O77         Cd82   2.177       .  S
Cd78         O80   2.081       .  S
Cd78         O81   1.966       .  S
Cd79         O83   2.048       .  S
Cd79         O92   2.103       .  S
Cd79         O81   1.948       .  S
O80          C90   1.281       .  A
O81         Cd82   1.983       .  S
Cd82         O84   2.166       .  S
O83          C90   1.275       .  A
C85          O89   1.279       .  A
C85         C407   1.507       .  S
C86         C439   1.428       .  S
C88         C224   1.481       .  S
C90         C412   1.462       .  S
C91          O92   1.289       .  A
O93         C109   1.261       .  A
O93         Zn99   2.022       .  S
C94         O110   1.277       .  A
C94         O107   1.283       .  A
C94         C499   1.511       .  S
O95         C108   1.295       .  A
O95        Cd102   2.162       .  S
O96         C114   1.293       .  A
O96        Cd105   2.123       .  S
O97         C111   1.280       .  A
O97        Cd929   2.079   1_554  S
O98         C109   1.253       .  A
O98        Cd101   1.987       .  S
Zn99        O110   2.028       .  S
Zn99        O112   1.986       .  S
Zn99        O104   1.896       .  S
O100        C939   1.277       .  A
O100       Cd105   2.054       .  S
Cd101       O925   2.068       .  S
Cd101       O931   2.051       .  S
Cd101       O104   1.970       .  S
Cd102       O106   2.173       .  S
Cd102       O115   2.170       .  S
Cd102       O104   1.980       .  S
O103        C113   1.259   1_556  A
O103       Cd929   2.051       .  S
O104       Cd105   1.938       .  S
Cd105       O107   2.168       .  S
O106        C941   1.280       .  A
C108        O112   1.281       .  A
C108        C183   1.473       .  S
C109        C531   1.437       .  S
C111        O928   1.277       .  A
C111        C505   1.462       .  S
C113        O934   1.278       .  A
C113        C177   1.471       .  S
C114        O115   1.297       .  A
C114        C136   1.507       .  S
O116        C132   1.261       .  A
O116       Zn122   1.986       .  S
C117        O133   1.257   1_556  A
C117        O958   1.268       .  A
C117       C1443   1.435       .  S
O118        C131   1.283       .  A
O118       Cd125   2.135       .  S
O119        C137   1.276       .  A
O119       Cd128   2.082       .  S
O120        C134   1.279       .  A
O120       Cd952   2.146       .  S
O121        C132   1.289       .  A
O121       Cd124   2.172       .  S
Zn122       O133   1.899       .  S
Zn122       O135   1.995       .  S
Zn122       O127   1.859       .  S
O123        C134   1.271       .  A
O123       Cd128   2.061       .  S
Cd124       O948   2.143   1_554  S
Cd124       O954   2.172   1_554  S
Cd124       O127   1.990       .  S
Cd125       O957   2.116   1_554  S
Cd125       O966   2.093   1_554  S
Cd125       O127   1.970       .  S
O126        C136   1.299       .  A
O126       Cd952   2.185       .  S
O127       Cd956   1.983   1_554  S
Cd128       O130   2.051       .  S
Cd128       O955   1.986       .  S
O129        C136   1.290       .  A
O129       Cd953   2.105       .  S
O130        C945   1.268       .  A
C131        O135   1.276       .  A
C131        C660   1.491       .  S
C132        C272   1.476       .  S
C134        C255   1.480       .  S
C137        O138   1.271       .  A
C137        C666   1.474       .  S
O138       Cd953   2.084       .  S
O139        C155   1.277       .  A
O139       Zn145   2.047       .  S
C140        O156   1.271       .  A
C140        O153   1.257       .  A
C140        C569   1.441   1_565  S
O141        C154   1.286       .  A
O141       Cd148   2.153       .  S
O142        C160   1.261       .  A
O142       Cd151   2.050       .  S
O143        C157   1.272       .  A
O143       Cd147   2.067       .  S
O144        C155   1.282       .  A
O144       Cd147   2.152       .  S
Zn145       O156   2.027       .  S
Zn145       O158   2.001       .  S
Zn145       O150   1.918       .  S
O146        C157   1.273       .  A
O146       Cd151   2.031       .  S
Cd147       O149   2.082       .  S
Cd147       O150   1.955       .  S
Cd148       O152   2.175       .  S
Cd148       O161   2.193       .  S
Cd148       O150   2.022       .  S
O149        C159   1.288       .  A
O150       Cd151   1.900       .  S
Cd151       O153   1.945       .  S
O152        C159   1.299       .  A
C154        O158   1.273       .  A
C154        C205   1.480       .  S
C155        C799   1.503   1_565  S
C157        C801   1.458       .  S
C159        C182   1.493       .  S
C160        O161   1.283       .  A
C160        C200   1.488       .  S
O162        C178   1.276       .  A
O162       Zn168   2.005       .  S
C163        O179   1.257       .  A
C163        O176   1.266       .  A
C163        C485   1.429       .  S
O164        C177   1.287       .  A
O164       Cd171   2.165       .  S
O165        C183   1.276       .  A
O165       Cd174   2.067       .  S
O166        C180   1.270       .  A
O166       Cd170   2.093       .  S
O167        C178   1.285       .  A
O167       Cd170   2.118       .  S
Zn168       O179   1.945       .  S
Zn168       O181   1.928       .  S
Zn168       O173   1.847       .  S
O169        C180   1.273       .  A
O169       Cd174   2.065       .  S
Cd170       O172   2.103       .  S
Cd170       O173   1.960       .  S
Cd171       O175   2.155       .  S
Cd171       O184   2.129       .  S
Cd171       O173   1.983       .  S
O172        C182   1.293       .  A
O173       Cd174   1.975       .  S
Cd174       O176   2.042       .  S
O175        C182   1.295       .  A
C177        O181   1.263       .  A
C178        C546   1.483       .  S
C180        C548   1.478       .  S
C183        O184   1.280       .  A
O185        C201   1.256       .  A
O185       Zn191   1.941   1_556  S
C186        O202   1.275       .  A
C186        O199   1.288       .  A
C186        C554   1.493   1_565  S
O187        C200   1.292       .  A
O187       Cd194   2.198   1_554  S
O188        C206   1.293       .  A
O188      Cd1025   2.119       .  S
O189        C203   1.275       .  A
O189       Cd193   2.064       .  S
O190       C1029   1.266       .  A
O190       Cd193   2.048       .  S
Zn191       O202   2.012       .  S
Zn191       O204   1.924       .  S
Zn191       O196   1.844   1_554  S
O192        C203   1.268       .  A
O192      Cd1025   2.063       .  S
Cd193       O195   2.077       .  S
Cd193      O1024   1.973       .  S
Cd194      O1026   2.139       .  S
Cd194      O1035   2.202       .  S
Cd194       O196   1.991       .  S
O195        C205   1.279       .  A
O196       Cd197   1.972   1_556  S
O196      Cd1021   1.975       .  S
Cd197       O199   2.144       .  S
Cd197      O1016   2.125   1_554  S
Cd197      O1020   2.089   1_554  S
O198        C205   1.283       .  A
O198      Cd1022   2.132       .  S
C200        O204   1.264       .  A
C201       O1018   1.266       .  A
C201       C1612   1.431   1_565  S
C203        C571   1.465   1_565  S
C206        O207   1.301       .  A
C206        C228   1.518       .  S
O207      Cd1022   2.202       .  S
O208        C224   1.260       .  A
O208       Zn214   1.907       .  S
C209        O225   1.256       .  A
C209        O222   1.266       .  A
C209        C408   1.439       .  S
O210        C223   1.288       .  A
O210       Cd217   2.131       .  S
O211        C229   1.275       .  A
O211      Cd1048   2.076       .  S
O212       C1054   1.283       .  A
O212       Cd216   2.149       .  S
O213        C224   1.292       .  A
O213       Cd216   2.200       .  S
Zn214       O225   1.957       .  S
Zn214       O227   1.992       .  S
Zn214       O219   1.851       .  S
O215        C226   1.270       .  A
O215      Cd1048   2.056       .  S
Cd216       O218   2.204       .  S
Cd216       O219   1.980       .  S
Cd217       O221   2.130       .  S
Cd217       O230   2.094       .  S
Cd217       O219   1.963       .  S
O218        C228   1.303       .  A
O219       Cd220   1.958       .  S
Cd220       O222   2.044       .  S
Cd220      O1039   2.062       .  S
Cd220      O1043   2.056       .  S
O221        C228   1.296       .  A
C223        O227   1.275       .  A
C223        C453   1.483       .  S
C226       O1040   1.281   1_554  A
C229       O1058   1.272   1_554  A
C229        C459   1.473       .  S
O230       C1057   1.270       .  A
O231        C247   1.274       .  A
O231       Zn237   2.002       .  S
C232        O248   1.260       .  A
C232        O245   1.271       .  A
C232        C316   1.439       .  S
O233        C246   1.290       .  A
O233       Cd240   2.171       .  S
O234        C252   1.274       .  A
O234       Cd243   2.081       .  S
O235        C249   1.270       .  A
O235       Cd239   2.070       .  S
O236        C247   1.281       .  A
O236       Cd239   2.144       .  S
Zn237       O248   1.913       .  S
Zn237       O250   1.974       .  S
Zn237       O242   1.853       .  S
O238        C249   1.275       .  A
O238       Cd243   2.081       .  S
Cd239       O241   2.090       .  S
Cd239       O242   1.988       .  S
Cd240       O244   2.185       .  S
Cd240       O253   2.146       .  S
Cd240       O242   1.993       .  S
O241        C251   1.288       .  A
O242       Cd243   2.008       .  S
Cd243       O245   2.072       .  S
O244        C251   1.299       .  A
C246        O250   1.266       .  A
C247        C339   1.495       .  S
C249        C341   1.466       .  S
C251        C275   1.503       .  S
C252        O253   1.280       .  A
O254        C270   1.260       .  A
O254       Zn260   1.998       .  S
C255        O271   1.281       .  A
C255        O268   1.294       .  A
O256        C269   1.282       .  A
O256       Cd263   2.160       .  S
O257        C275   1.295       .  A
O257       Cd266   2.165       .  S
O258        C272   1.261       .  A
O258       Cd262   2.055       .  S
O259        C270   1.257       .  A
O259       Cd262   2.000       .  S
Zn260       O271   2.007       .  S
Zn260       O273   2.044       .  S
Zn260       O265   1.881       .  S
O261        C272   1.282       .  A
O261       Cd266   2.158       .  S
Cd262       O264   2.050       .  S
Cd262       O265   1.983       .  S
Cd263       O267   2.065       .  S
Cd263       O276   2.113       .  S
Cd263       O265   1.948       .  S
O264        C274   1.276       .  A
O265       Cd266   1.979       .  S
Cd266       O268   2.162       .  S
O267        C274   1.278       .  A
C269        O273   1.279       .  A
C269        C614   1.512       .  S
C270        C646   1.431       .  S
C274        C619   1.458       .  S
C275        O276   1.291       .  A
O277        C293   1.279       .  A
O277      Zn1111   2.010       .  S
C278        O294   1.262       .  A
C278        O291   1.252       .  A
C278        C807   1.439       .  S
O279       C1120   1.277   1_554  A
O279       Cd286   2.133       .  S
O280        C298   1.275       .  A
O280       Cd289   2.059       .  S
O281        C295   1.285       .  A
O281       Cd285   2.190       .  S
O282       C1121   1.288   1_554  A
O282       Cd285   2.139       .  S
Zn283       O294   2.019   1_556  S
Zn283      O1105   1.997       .  S
Zn283      O1124   2.025       .  S
Zn283       O288   1.935   1_556  S
O284        C295   1.267       .  A
O284       Cd289   2.003       .  S
Cd285       O287   2.179       .  S
Cd285       O288   2.007       .  S
Cd286       O290   2.095       .  S
Cd286       O299   2.069       .  S
Cd286       O288   1.947       .  S
O287        C297   1.298       .  A
O288       Cd289   1.916       .  S
Cd289       O291   1.991       .  S
O290        C297   1.291       .  A
C292        O296   1.276       .  A
C292       O1107   1.276       .  A
C292        C752   1.496       .  S
C293       O1110   1.285       .  A
C293        C525   1.471       .  S
C295        C508   1.497       .  S
O296      Zn1111   2.035       .  S
C297        C321   1.500   1_655  S
C298        O299   1.277       .  A
C298        C758   1.459       .  S
O300        C316   1.262       .  A
O300       Zn306   2.018       .  S
C301        O317   1.278       .  A
C301        O314   1.277       .  A
O302        C315   1.289       .  A
O302       Cd309   2.144       .  S
O303        C321   1.288       .  A
O303       Cd312   2.079       .  S
O304        C318   1.274       .  A
O304       Cd308   2.053       .  S
O305        C316   1.252       .  A
O305       Cd308   1.997       .  S
Zn306       O317   2.034       .  S
Zn306       O319   2.002       .  S
Zn306       O311   1.930       .  S
O307        C318   1.275       .  A
O307       Cd312   2.051       .  S
Cd308       O310   1.991       .  S
Cd308       O311   1.914       .  S
Cd309       O313   2.190       .  S
Cd309       O322   2.190       .  S
Cd309       O311   2.003       .  S
O310        C320   1.265       .  A
O311       Cd312   1.939       .  S
Cd312       O314   2.125       .  S
O313        C320   1.284       .  A
C315        O319   1.280       .  A
C315        C344   1.477       .  S
C320        C338   1.496       .  S
C321        O322   1.300       .  A
O323        C339   1.267   1_556  A
O323      Zn1157   1.985       .  S
C324        O340   1.267       .  A
C324        O337   1.270       .  A
O325       C1166   1.280       .  A
O325       Cd332   2.189       .  S
O326        C344   1.271       .  A
O326       Cd335   2.057       .  S
O327        C341   1.273       .  A
O327       Cd331   2.099       .  S
O328       C1167   1.285       .  A
O328       Cd331   2.167       .  S
Zn329       O340   1.952       .  S
Zn329      O1151   1.971       .  S
Zn329      O1170   1.947       .  S
Zn329       O334   1.825       .  S
O330        C341   1.271       .  A
O330       Cd335   2.053       .  S
Cd331       O333   2.109       .  S
Cd331       O334   1.983       .  S
Cd332       O336   2.199       .  S
Cd332       O345   2.131       .  S
Cd332       O334   2.012       .  S
O333        C343   1.293       .  A
O334       Cd335   1.954       .  S
Cd335       O337   2.051       .  S
O336        C343   1.303       .  A
C338        O342   1.265       .  A
C338       O1153   1.283   1_554  A
C339       O1156   1.286       .  A
O342      Zn1157   1.938   1_554  S
C343        C366   1.507       .  S
C344        O345   1.276       .  A
O346        C362   1.278       .  A
O346       Zn352   2.026       .  S
C347        O363   1.263       .  A
C347        O360   1.269       .  A
C347        C592   1.438       .  S
O348        C361   1.285       .  A
O348       Cd355   2.142       .  S
O349        C367   1.274       .  A
O349       Cd358   2.067       .  S
O350        C364   1.269       .  A
O350       Cd354   2.070       .  S
O351        C362   1.283       .  A
O351       Cd354   2.124       .  S
Zn352       O363   1.938       .  S
Zn352       O365   1.984       .  S
Zn352       O357   1.864       .  S
O353        C364   1.274       .  A
O353       Cd358   2.067       .  S
Cd354       O356   2.102       .  S
Cd354       O357   1.961       .  S
Cd355       O359   2.178       .  S
Cd355       O368   2.137       .  S
Cd355       O357   1.985       .  S
O356        C366   1.290       .  A
O357       Cd358   1.976       .  S
Cd358       O360   2.057       .  S
O359        C366   1.296       .  A
C361        O365   1.263       .  A
C361        C435   1.462       .  S
C362        C638   1.492       .  S
C364        C640   1.464       .  S
C367        O368   1.279       .  A
C367        C430   1.478       .  S
O369        C385   1.277       .  A
O369       Zn375   2.028       .  S
C370        O386   1.261       .  A
C370        O383   1.258       .  A
C370        C684   1.437       .  S
O371        C384   1.291       .  A
O371       Cd378   2.151       .  S
O372        C390   1.263       .  A
O372       Cd381   2.061       .  S
O373        C387   1.280       .  A
O373       Cd377   2.061       .  S
O374        C385   1.279       .  A
O374       Cd377   2.142       .  S
Zn375       O386   2.005       .  S
Zn375       O388   1.986       .  S
Zn375       O380   1.876       .  S
O376        C387   1.278       .  A
O376       Cd381   2.062       .  S
Cd377       O379   2.110       .  S
Cd377       O380   1.942       .  S
Cd378       O382   2.171       .  S
Cd378       O391   2.150       .  S
Cd378       O380   1.964       .  S
O379        C389   1.289       .  A
O380       Cd381   1.977       .  S
Cd381       O383   2.015       .  S
O382        C389   1.297       .  A
C384        O388   1.279       .  A
C384        C481   1.473       .  S
C385        C707   1.500       .  S
C387        C709   1.459       .  S
C389        C413   1.503   1_655  S
C390        O391   1.283       .  A
C390        C476   1.472       .  S
O392        C408   1.262       .  A
O392       Zn398   2.013       .  S
C393        O409   1.282       .  A
C393       O1234   1.295   1_554  A
C393        C456   1.481       .  S
O394       C1235   1.282       .  A
O394       Cd401   2.162       .  S
O395        C413   1.295       .  A
O395       Cd404   2.160       .  S
O396        C410   1.259       .  A
O396       Cd400   2.058       .  S
O397        C408   1.257       .  A
O397       Cd400   2.012       .  S
Zn398      O1237   1.985       .  S
Zn398      O1239   2.034       .  S
Zn398       O403   1.863       .  S
O399        C410   1.282       .  A
O399       Cd404   2.157       .  S
Cd400       O402   2.061       .  S
Cd400       O403   1.982       .  S
Cd401       O405   2.073       .  S
Cd401       O414   2.125       .  S
Cd401       O403   1.942       .  S
O402        C412   1.278       .  A
O403       Cd404   1.970       .  S
Cd404       O406   2.152       .  S
O405        C412   1.282       .  A
O406       C1221   1.292       .  A
C407        O411   1.280       .  A
C407       O1222   1.281   1_554  A
O409      Zn1226   2.005   1_554  S
C410        C454   1.472       .  S
O411      Zn1226   2.040   1_554  S
C413        O414   1.292       .  A
O415        C431   1.265   1_556  A
O415       Zn421   1.999       .  S
C416        O432   1.275       .  A
C416       O1257   1.280       .  A
C416        C577   1.504       .  S
O417       C1258   1.286   1_554  A
O417       Cd424   2.127       .  S
O418        C436   1.290       .  A
O418       Cd427   2.108       .  S
O419        C433   1.276       .  A
O419       Cd423   2.063       .  S
O420        C431   1.261       .  A
O420       Cd423   2.010       .  S
Zn421      O1260   2.043       .  S
Zn421      O1262   2.014       .  S
Zn421       O426   1.909   1_556  S
O422        C433   1.278       .  A
O422       Cd427   2.065       .  S
Cd423       O425   2.060       .  S
Cd423       O426   1.973       .  S
Cd424       O428   2.115       .  S
Cd424       O437   2.134       .  S
Cd424       O426   1.971       .  S
O425        C435   1.265       .  A
O426       Cd427   1.952       .  S
Cd427       O429   2.129       .  S
O428        C435   1.277       .  A
O429       C1244   1.278   1_554  A
C430        O434   1.274       .  A
C430       O1245   1.286       .  A
C431        C623   1.435       .  S
O432      Zn1249   2.033       .  S
C433        C594   1.462       .  S
O434      Zn1249   1.985       .  S
C436        O437   1.291       .  A
C436        C458   1.493   1_545  S
O438        C454   1.262       .  A
O438       Zn444   1.980       .  S
C439        O455   1.256       .  A
C439        O452   1.269       .  A
O440        C453   1.278       .  A
O440       Cd447   2.108       .  S
O441        C459   1.274       .  A
O441       Cd450   2.076       .  S
O442        C456   1.280       .  A
O442       Cd446   2.145       .  S
O443        C454   1.288       .  A
O443       Cd446   2.165       .  S
Zn444       O455   1.895       .  S
Zn444       O457   2.005       .  S
Zn444       O449   1.857       .  S
O445        C456   1.272       .  A
O445       Cd450   2.065       .  S
Cd446       O448   2.168       .  S
Cd446       O449   1.980       .  S
Cd447       O451   2.084       .  S
Cd447       O460   2.083       .  S
Cd447       O449   1.974       .  S
O448        C458   1.298       .  A
O449       Cd450   1.987       .  S
Cd450       O452   2.048       .  S
O451        C458   1.287       .  A
C453        O457   1.277       .  A
C459        O460   1.271       .  A
O461        C477   1.256       .  A
O461       Zn467   1.954       .  S
C462        O478   1.277       .  A
C462       O1303   1.281       .  A
C462        C669   1.483       .  S
O463       C1304   1.289   1_554  A
O463       Cd470   2.177       .  S
O464        C482   1.294       .  A
O464       Cd473   2.123       .  S
O465        C479   1.274       .  A
O465       Cd469   2.070       .  S
O466        C477   1.265       .  A
O466       Cd469   2.036       .  S
Zn467      O1306   2.006       .  S
Zn467      O1308   1.934       .  S
Zn467       O472   1.859       .  S
O468        C479   1.271       .  A
O468       Cd473   2.104       .  S
Cd469       O471   2.062       .  S
Cd469       O472   1.967       .  S
Cd470       O474   2.129       .  S
Cd470       O483   2.172       .  S
Cd470       O472   1.981       .  S
O471        C481   1.275       .  A
O472       Cd473   1.965       .  S
Cd473       O475   2.123       .  S
O474        C481   1.280       .  A
O475       C1290   1.286   1_554  A
C476        O480   1.258       .  A
C476       O1291   1.287       .  A
C477        C692   1.437       .  S
O478      Zn1295   1.995       .  S
C479        C686   1.482       .  S
O480      Zn1295   1.979       .  S
C482        O483   1.298       .  A
C482        C504   1.505       .  S
O484        C500   1.282       .  A
O484       Zn490   2.010       .  S
C485        O501   1.260       .  A
C485        O498   1.257       .  A
O486        C499   1.282       .  A
O486       Cd493   2.160       .  S
O487        C505   1.278       .  A
O487       Cd496   2.066       .  S
O488        C502   1.282       .  A
O488       Cd492   2.155       .  S
O489        C500   1.294       .  A
O489       Cd492   2.164       .  S
Zn490       O501   1.994       .  S
Zn490       O503   2.048       .  S
Zn490       O495   1.883       .  S
O491        C502   1.261       .  A
O491       Cd496   2.060       .  S
Cd492       O494   2.169       .  S
Cd492       O495   1.969       .  S
Cd493       O497   2.115       .  S
Cd493       O506   2.063       .  S
Cd493       O495   1.947       .  S
O494        C504   1.297       .  A
O495       Cd496   1.989       .  S
Cd496       O498   1.999       .  S
O497        C504   1.290       .  A
C499        O503   1.279       .  A
C500        C551   1.482       .  S
C502        C545   1.475       .  S
C505        O506   1.279       .  A
O507        C523   1.266       .  A
O507       Zn513   1.946       .  S
C508        O524   1.265       .  A
C508        O521   1.282       .  A
O509        C522   1.285       .  A
O509       Cd516   2.162       .  S
O510        C528   1.303       .  A
O510       Cd519   2.197       .  S
O511        C525   1.271       .  A
O511       Cd515   2.053       .  S
O512        C523   1.268       .  A
O512       Cd515   2.039       .  S
Zn513       O524   1.947       .  S
Zn513       O526   1.972       .  S
Zn513       O518   1.820       .  S
O514        C525   1.277       .  A
O514       Cd519   2.125       .  S
Cd515       O517   2.056       .  S
Cd515       O518   1.947       .  S
Cd516       O520   2.090       .  S
Cd516       O529   2.096       .  S
Cd516       O518   1.971       .  S
O517        C527   1.272       .  A
O518       Cd519   1.999       .  S
Cd519       O521   2.193       .  S
O520        C527   1.272       .  A
C522        O526   1.266       .  A
C522        C822   1.491       .  S
C523        C738   1.440       .  S
C527        C824   1.464       .  S
C528        O529   1.292       .  A
C528        C550   1.505   1_545  S
O530        C546   1.276       .  A
O530      Zn1364   1.996   1_554  S
C531        O547   1.257       .  A
C531        O544   1.267       .  A
O532       C1373   1.289       .  A
O532       Cd539   2.171       .  S
O533        C551   1.271       .  A
O533       Cd542   2.061       .  S
O534        C548   1.273       .  A
O534       Cd538   2.094       .  S
O535       C1374   1.282       .  A
O535       Cd538   2.132       .  S
Zn536       O547   1.906       .  S
Zn536      O1358   1.978       .  S
Zn536      O1377   1.986       .  S
Zn536       O541   1.854       .  S
O537        C548   1.277       .  A
O537       Cd542   2.086       .  S
Cd538       O540   2.104       .  S
Cd538       O541   1.966       .  S
Cd539       O543   2.181       .  S
Cd539       O552   2.147       .  S
Cd539       O541   1.997       .  S
O540        C550   1.291       .  A
O541       Cd542   1.980       .  S
Cd542       O544   2.051       .  S
O543        C550   1.298       .  A
C545        O549   1.259   1_554  A
C545       O1360   1.288       .  A
C546       O1363   1.282       .  A
O549      Zn1364   1.978       .  S
C551        O552   1.279       .  A
O553        C569   1.257       .  A
O553       Zn559   1.888       .  S
C554        O570   1.277       .  A
C554        O567   1.279       .  A
O555        C568   1.290       .  A
O555       Cd562   2.193       .  S
O556        C574   1.290       .  A
O556       Cd565   2.090       .  S
O557        C571   1.276       .  A
O557       Cd561   2.064       .  S
O558        C569   1.267       .  A
O558       Cd561   2.069       .  S
Zn559       O570   1.998       .  S
Zn559       O572   1.970       .  S
Zn559       O564   1.810       .  S
O560        C571   1.271       .  A
O560       Cd565   2.081       .  S
Cd561       O563   2.065       .  S
Cd561       O564   1.972       .  S
Cd562       O566   2.142       .  S
Cd562       O575   2.195       .  S
Cd562       O564   2.003       .  S
O563        C573   1.272       .  A
O564       Cd565   1.952       .  S
Cd565       O567   2.127       .  S
O566        C573   1.278       .  A
C568        O572   1.260       .  A
C568        C804   1.483       .  S
C573        C798   1.479       .  S
C574        O575   1.302       .  A
C574        C597   1.504       .  S
O576        C592   1.262       .  A
O576       Zn582   2.019       .  S
C577        O593   1.279       .  A
C577        O590   1.279       .  A
O578        C591   1.295       .  A
O578       Cd585   2.163       .  S
O579        C597   1.290       .  A
O579       Cd588   2.106       .  S
O580        C594   1.279       .  A
O580       Cd584   2.068       .  S
O581        C592   1.255       .  A
O581       Cd584   2.001       .  S
Zn582       O593   2.044       .  S
Zn582       O595   2.011       .  S
Zn582       O587   1.909       .  S
O583        C594   1.277       .  A
O583       Cd588   2.057       .  S
Cd584       O586   2.048       .  S
Cd584       O587   1.975       .  S
Cd585       O589   2.167       .  S
Cd585       O598   2.170       .  S
Cd585       O587   1.979       .  S
O586        C596   1.259       .  A
O587       Cd588   1.938       .  S
Cd588       O590   2.140       .  S
O589        C596   1.280       .  A
C591        O595   1.283       .  A
C591        C643   1.480       .  S
C596        C637   1.479       .  S
C597        O598   1.295       .  A
O599        C615   1.259       .  A
O599       Zn605   2.013       .  S
C600        O616   1.282       .  A
C600        O613   1.292       .  A
C600        C663   1.472       .  S
O601        C614   1.282       .  A
O601      Cd1436   2.163       .  S
O602        C620   1.297       .  A
O602       Cd611   2.172       .  S
O603        C617   1.257       .  A
O603       Cd607   2.049       .  S
O604       C1443   1.252       .  A
O604       Cd607   1.993   1_556  S
Zn605       O616   1.997       .  S
Zn605       O618   2.034       .  S
Zn605      O1438   1.896       .  S
O606        C617   1.280       .  A
O606       Cd611   2.171       .  S
Cd607       O609   2.070       .  S
Cd607       O610   1.964   1_554  S
Cd608       O612   2.051       .  S
Cd608       O621   2.121       .  S
Cd608      O1429   2.159   1_554  S
Cd608       O610   1.945   1_554  S
O609        C619   1.280       .  A
O610      Zn1433   1.894       .  S
O610       Cd611   1.982   1_556  S
Cd611      O1441   2.166   1_554  S
O612        C619   1.277       .  A
O613      Cd1439   2.148       .  S
C614        O618   1.278       .  A
C615       O1432   1.253       .  A
C615        C945   1.434       .  S
C617        C661   1.477       .  S
C620        O621   1.292       .  A
C620        C642   1.507       .  S
O622        C638   1.278       .  A
O622       Zn628   2.027       .  S
C623        O639   1.260       .  A
C623        O636   1.267   1_554  A
O624        C637   1.289       .  A
O624       Cd631   2.173       .  S
O625        C643   1.269       .  A
O625      Cd1462   2.061       .  S
O626       C1468   1.270   1_554  A
O626       Cd630   2.071       .  S
O627        C638   1.288       .  A
O627       Cd630   2.136       .  S
Zn628       O639   1.954       .  S
Zn628       O641   1.955       .  S
Zn628       O633   1.865       .  S
O629        C640   1.274       .  A
O629      Cd1462   2.058       .  S
Cd630       O632   2.118       .  S
Cd630       O633   1.964       .  S
Cd631       O635   2.173       .  S
Cd631       O644   2.137       .  S
Cd631       O633   1.976       .  S
O632        C642   1.293       .  A
O633       Cd634   1.993   1_554  S
Cd634       O636   2.047       .  S
Cd634      O1453   2.084       .  S
Cd634      O1457   2.073       .  S
O635        C642   1.298       .  A
C637        O641   1.267       .  A
C640       O1454   1.273       .  A
C643       O1472   1.279       .  A
O644       C1471   1.282   1_554  A
O645        C661   1.263       .  A
O645       Zn651   1.923       .  S
C646        O662   1.256       .  A
C646        O659   1.266       .  A
O647        C660   1.287       .  A
O647       Cd654   2.133       .  S
O648        C666   1.273       .  A
O648       Cd657   2.066       .  S
O649        C663   1.278       .  A
O649       Cd653   2.126       .  S
O650        C661   1.289       .  A
O650       Cd653   2.178       .  S
Zn651       O662   1.945       .  S
Zn651       O664   2.015       .  S
Zn651       O656   1.844       .  S
O652        C663   1.274       .  A
O652       Cd657   2.065       .  S
Cd653       O655   2.177       .  S
Cd653       O656   1.985       .  S
Cd654       O658   2.112       .  S
Cd654       O667   2.083       .  S
Cd654       O656   1.959       .  S
O655        C665   1.299       .  A
O656       Cd657   1.978       .  S
Cd657       O659   2.040       .  S
O658        C665   1.294       .  A
C660        O664   1.277       .  A
C665        C689   1.504       .  S
C666        O667   1.269       .  A
O668        C684   1.256       .  A
O668       Zn674   1.948       .  S
C669        O685   1.276       .  A
C669        O682   1.285       .  A
O670        C683   1.292       .  A
O670       Cd677   2.195       .  S
O671        C689   1.292       .  A
O671       Cd680   2.101       .  S
O672        C686   1.275       .  A
O672       Cd676   2.084       .  S
O673        C684   1.265       .  A
O673       Cd676   2.033       .  S
Zn674       O685   2.007       .  S
Zn674       O687   1.933       .  S
Zn674       O679   1.858       .  S
O675        C686   1.270       .  A
O675       Cd680   2.093       .  S
Cd676       O678   2.066       .  S
Cd676       O679   1.974       .  S
Cd677       O681   2.132       .  S
Cd677       O690   2.188       .  S
Cd677       O679   1.988       .  S
O678        C688   1.274       .  A
O679       Cd680   1.963       .  S
Cd680       O682   2.115       .  S
O681        C688   1.279       .  A
C683        O687   1.263       .  A
C683        C712   1.484       .  S
C688        C706   1.475       .  S
C689        O690   1.301       .  A
O691        C707   1.277       .  A
O691       Zn697   2.029       .  S
C692        O708   1.261       .  A
C692        O705   1.257       .  A
O693        C706   1.294       .  A
O693       Cd700   2.160       .  S
O694        C712   1.256       .  A
O694      Cd1531   2.053       .  S
O695       C1537   1.280   1_554  A
O695       Cd699   2.060       .  S
O696        C707   1.279       .  A
O696       Cd699   2.144       .  S
Zn697       O708   2.006       .  S
Zn697       O710   1.987       .  S
Zn697       O702   1.872       .  S
O698        C709   1.280       .  A
O698      Cd1531   2.072       .  S
Cd699       O701   2.113       .  S
Cd699       O702   1.942       .  S
Cd700       O704   2.167       .  S
Cd700       O713   2.150       .  S
Cd700       O702   1.961       .  S
O701        C711   1.290       .  A
O702       Cd703   1.984       .  S
Cd703       O705   2.017       .  S
Cd703      O1522   2.063       .  S
Cd703      O1526   2.072       .  S
O704        C711   1.297       .  A
C706        O710   1.279       .  A
C709       O1523   1.277       .  A
C711        C735   1.502       .  S
C712       O1541   1.283       .  A
O713       C1540   1.282   1_554  A
O714        C730   1.260       .  A
O714       Zn720   1.997       .  S
C715        O731   1.282       .  A
C715        O728   1.290       .  A
C715        C780   1.474       .  S
O716        C729   1.282       .  A
O716      Cd1551   2.161       .  S
O717        C735   1.295       .  A
O717       Cd726   2.158       .  S
O718        C732   1.260       .  A
O718       Cd722   2.055       .  S
O719       C1558   1.257       .  A
O719       Cd722   2.002   1_556  S
Zn720       O731   2.006       .  S
Zn720       O733   2.040       .  S
Zn720      O1553   1.877       .  S
O721        C732   1.280       .  A
O721       Cd726   2.146       .  S
Cd722       O724   2.069       .  S
Cd722       O725   1.983   1_554  S
Cd723       O727   2.068       .  S
Cd723       O736   2.120       .  S
Cd723      O1544   2.150   1_554  S
Cd723       O725   1.946   1_554  S
O724        C734   1.278       .  A
O725      Zn1548   1.878       .  S
O725       Cd726   1.969   1_556  S
Cd726      O1556   2.163   1_554  S
O727        C734   1.280       .  A
O728      Cd1554   2.139       .  S
C729        O733   1.279       .  A
C730       O1547   1.257       .  A
C730        C830   1.433   1_655  S
C732        C775   1.469       .  S
C735        O736   1.291       .  A
O737        C753   1.274       .  A
O737       Zn743   1.985       .  S
C738        O754   1.267       .  A
C738        O751   1.258       .  A
O739        C752   1.280       .  A
O739       Cd746   2.140       .  S
O740        C758   1.272       .  A
O740       Cd749   2.026       .  S
O741        C755   1.280       .  A
O741       Cd745   2.163       .  S
O742        C753   1.292       .  A
O742       Cd745   2.172       .  S
Zn743       O754   1.994       .  S
Zn743       O756   2.037       .  S
Zn743       O748   1.894       .  S
O744        C755   1.262       .  A
O744       Cd749   2.048       .  S
Cd745       O747   2.173       .  S
Cd745       O748   2.010       .  S
Cd746       O750   2.075       .  S
Cd746       O759   2.068       .  S
Cd746       O748   1.953       .  S
O747        C757   1.298       .  A
O748       Cd749   1.931       .  S
Cd749       O751   1.984       .  S
O750        C757   1.287       .  A
C752        O756   1.277       .  A
C753        C827   1.484       .  S
C755        C821   1.473       .  S
C757        C781   1.493       .  S
C758        O759   1.272       .  A
O760        C776   1.257       .  A
O760       Zn766   1.902       .  S
C761        O777   1.275       .  A
C761        O774   1.281       .  A
O762        C775   1.287       .  A
O762       Cd769   2.155       .  S
O763        C781   1.290       .  A
O763       Cd772   2.089       .  S
O764        C778   1.277       .  A
O764       Cd768   2.088       .  S
O765        C776   1.267       .  A
O765       Cd768   2.039       .  S
Zn766       O777   1.994       .  S
Zn766       O779   1.983       .  S
Zn766       O771   1.853       .  S
O767        C778   1.271       .  A
O767       Cd772   2.090       .  S
Cd768       O770   2.062       .  S
Cd768       O771   1.981       .  S
Cd769       O773   2.131       .  S
Cd769       O782   2.158       .  S
Cd769       O771   1.992       .  S
O770        C780   1.272       .  A
O771       Cd772   1.963       .  S
Cd772       O774   2.124       .  S
O773        C780   1.277       .  A
C775        O779   1.263       .  A
C781        O782   1.294       .  A
O783        C799   1.278       .  A
O783       Zn789   2.037       .  S
C784        O800   1.263       .  A
C784       O1625   1.257       .  A
C784       C1029   1.432   1_545  S
O785        C798   1.293       .  A
O785      Cd1620   2.156       .  S
O786        C804   1.266       .  A
O786       Cd795   1.999       .  S
O787        C801   1.276   1_545  A
O787       Cd791   2.078       .  S
O788        C799   1.280       .  A
O788      Cd1619   2.147       .  S
Zn789       O800   2.005       .  S
Zn789       O802   2.000       .  S
Zn789      O1622   1.896       .  S
O790        C801   1.270   1_545  A
O790       Cd795   2.045       .  S
Cd791       O793   2.094       .  S
Cd791      O1616   2.148   1_554  S
Cd791       O794   1.960   1_554  S
Cd792       O796   2.188       .  S
Cd792       O805   2.177       .  S
Cd792      O1613   2.170   1_554  S
Cd792       O794   2.009   1_554  S
O793        C803   1.291       .  A
O794      Zn1617   1.901       .  S
O794       Cd795   1.933   1_556  S
Cd795       O797   2.000   1_554  S
O796        C803   1.299       .  A
O797       C1612   1.256       .  A
C798        O802   1.281       .  A
C803        C826   1.502       .  S
C804        O805   1.282       .  A
O806        C822   1.271       .  A
O806       Zn812   1.979       .  S
C807        O823   1.259       .  A
C807        O820   1.270   1_554  A
O808        C821   1.290       .  A
O808       Cd815   2.171       .  S
O809        C827   1.274       .  A
O809      Cd1646   2.080       .  S
O810       C1652   1.270   1_554  A
O810       Cd814   2.066       .  S
O811        C822   1.279       .  A
O811       Cd814   2.146       .  S
Zn812       O823   1.906       .  S
Zn812       O825   1.948       .  S
Zn812       O817   1.840       .  S
O813        C824   1.274       .  A
O813      Cd1646   2.073       .  S
Cd814       O816   2.082       .  S
Cd814       O817   1.987       .  S
Cd815       O819   2.189       .  S
Cd815       O828   2.151       .  S
Cd815       O817   1.996       .  S
O816        C826   1.288       .  A
O817       Cd818   2.004   1_554  S
Cd818       O820   2.063       .  S
Cd818      O1637   2.077       .  S
Cd818      O1641   2.078       .  S
O819        C826   1.299       .  A
C821        O825   1.265       .  A
C824       O1638   1.270       .  A
C827       O1656   1.279       .  A
O828       C1655   1.280   1_554  A
O829        C845   1.263       .  A
O829       Zn835   1.922       .  S
C830        O846   1.256       .  A
O831        C844   1.285       .  A
O832        C850   1.273       .  A
O832       Cd841   2.064       .  S
O833        C847   1.279       .  A
O833       Cd837   2.128   1_556  S
O834        C845   1.290       .  A
Zn835       O846   1.945       .  S
Zn835       O848   2.005       .  S
Zn835       O840   1.851       .  S
O836        C847   1.275       .  A
O836       Cd841   2.064       .  S
Cd837       O839   2.172   1_554  S
Cd838       O842   2.121   1_554  S
Cd838       O851   2.096   1_554  S
O839        C849   1.297       .  A
Cd841       O843   2.045       .  S
O842        C849   1.296       .  A
C844        O848   1.275       .  A
C844       C1589   1.486   1_455  S
C845        C896   1.479       .  S
C847        C890   1.473       .  S
C849        C872   1.505       .  S
C850        O851   1.271       .  A
C850       C1606   1.478   1_455  S
O852        C868   1.273       .  A
O852       Zn858   1.988       .  S
C853        O869   1.270       .  A
C853        O866   1.258       .  A
C853       C1152   1.440       .  S
O854        C867   1.279       .  A
O854       Cd861   2.138       .  S
O855        C873   1.272       .  A
O856       Cd860   2.170   1_554  S
O857        C868   1.294       .  A
O857       Cd860   2.186       .  S
Zn858       O869   2.009       .  S
Zn858       O871   2.036       .  S
Zn858       O863   1.908       .  S
O859        C870   1.262       .  A
Cd860       O862   2.201       .  S
Cd860       O863   1.997       .  S
Cd861       O865   2.083       .  S
Cd861       O874   2.055   1_556  S
Cd861       O863   1.954       .  S
O862        C872   1.302       .  A
O863       Cd864   1.937       .  S
Cd864       O866   1.976       .  S
O865        C872   1.287       .  A
C867        O871   1.276       .  A
C867       C1129   1.496       .  S
C868       C1080   1.489       .  S
C870       C1074   1.480       .  S
C873       C1146   1.452       .  S
O875        C891   1.278       .  A
O875       Zn881   2.030       .  S
C876        O892   1.260       .  A
C876        O889   1.252       .  A
C876       C1604   1.434   1_455  S
O877        C890   1.295       .  A
O877       Cd884   2.161       .  S
O878        C896   1.259       .  A
O878       Cd887   2.052       .  S
O879        C893   1.275       .  A
O879       Cd883   2.041       .  S
O880        C891   1.280       .  A
O880       Cd883   2.152       .  S
Zn881       O892   2.016       .  S
Zn881       O894   1.987       .  S
Zn881       O886   1.893       .  S
O882        C893   1.281       .  A
O882       Cd887   2.073       .  S
Cd883       O885   2.099       .  S
Cd883       O886   1.936       .  S
Cd884       O888   2.166       .  S
Cd884       O897   2.170       .  S
Cd884       O886   1.978       .  S
O885        C895   1.289       .  A
O886       Cd887   1.969       .  S
Cd887       O889   1.991       .  S
O888        C895   1.297       .  A
C890        O894   1.281       .  A
C891       C1557   1.506   1_455  S
C893       C1562   1.457   1_455  S
C895        C919   1.499       .  S
C896        O897   1.280       .  A
O898        C914   1.260       .  A
O898       Zn904   2.000       .  S
C899        O915   1.280       .  A
C899        O912   1.292       .  A
C899       C1054   1.479       .  S
O900        C913   1.281       .  A
O900       Cd907   2.153       .  S
O901        C919   1.296       .  A
O901       Cd910   2.162       .  S
O902        C916   1.267       .  A
O902       Cd906   2.054       .  S
O903        C914   1.256       .  A
O903       Cd906   2.006       .  S
Zn904       O915   2.001       .  S
Zn904       O917   2.032       .  S
Zn904       O909   1.911       .  S
O905        C916   1.282       .  A
O905       Cd910   2.149       .  S
Cd906       O908   2.070       .  S
Cd906       O909   1.970       .  S
Cd907       O911   2.065       .  S
Cd907       O920   2.109       .  S
Cd907       O909   1.948       .  S
O908        C918   1.277       .  A
O909       Cd910   1.970       .  S
Cd910       O912   2.157       .  S
O911        C918   1.278       .  A
C913        O917   1.277       .  A
C913       C1235   1.507       .  S
C914       C1267   1.432       .  S
C916       C1052   1.479       .  S
C918       C1240   1.464       .  S
C919        O920   1.291       .  A
O921        C937   1.260       .  A
O921       Zn927   2.007       .  S
C922        O938   1.278       .  A
C922        O935   1.283       .  A
C922       C1327   1.509       .  S
O923        C936   1.296       .  A
O923       Cd930   2.173       .  S
O924        C942   1.292       .  A
O924       Cd933   2.116       .  S
O925        C939   1.280       .  A
O926        C937   1.254       .  A
O926       Cd929   2.001       .  S
Zn927       O938   2.030       .  S
Zn927       O940   1.994       .  S
Zn927       O932   1.887       .  S
O928       Cd933   2.054   1_554  S
Cd929       O932   1.974       .  S
Cd930       O934   2.157   1_556  S
Cd930       O943   2.170       .  S
Cd930       O932   1.976       .  S
O931        C941   1.258       .  A
O932       Cd933   1.939       .  S
Cd933       O935   2.161       .  S
C936        O940   1.281       .  A
C936       C1011   1.481       .  S
C937       C1359   1.432       .  S
C939       C1333   1.459       .  S
C941       C1005   1.478       .  S
C942        O943   1.297       .  A
C942        C964   1.505       .  S
O944        C960   1.262       .  A
O944       Zn950   1.975       .  S
C945        O961   1.256       .  A
O946        C959   1.281       .  A
O946       Cd953   2.130       .  S
O947        C965   1.276       .  A
O947       Cd956   2.084       .  S
O948        C962   1.279       .  A
O949        C960   1.290       .  A
O949       Cd952   2.175       .  S
Zn950       O961   1.896       .  S
Zn950       O963   1.982       .  S
Zn950       O955   1.857       .  S
O951        C962   1.272       .  A
O951       Cd956   2.065       .  S
Cd952       O955   1.990       .  S
Cd953       O955   1.978       .  S
O954        C964   1.298       .  A
Cd956       O958   2.049       .  S
O957        C964   1.292       .  A
C959        O963   1.274       .  A
C959       C1488   1.487       .  S
C960       C1100   1.476       .  S
C962       C1083   1.481       .  S
C965        O966   1.272       .  A
C965       C1494   1.477       .  S
O967        C983   1.278       .  A
O967       Zn973   2.036       .  S
C968        O984   1.260       .  A
C968        O981   1.254       .  A
C968       C1397   1.435   1_565  S
O969        C982   1.294       .  A
O969       Cd976   2.160       .  S
O970        C988   1.261       .  A
O970       Cd979   2.056       .  S
O971        C985   1.278       .  A
O971       Cd975   2.047       .  S
O972        C983   1.280       .  A
O972       Cd975   2.149       .  S
Zn973       O984   2.009       .  S
Zn973       O986   2.000       .  S
Zn973       O978   1.898       .  S
O974        C985   1.278       .  A
O974       Cd979   2.065       .  S
Cd975       O977   2.110       .  S
Cd975       O978   1.935       .  S
Cd976       O980   2.167       .  S
Cd976       O989   2.176       .  S
Cd976       O978   1.967       .  S
O977        C987   1.291       .  A
O978       Cd979   1.967       .  S
Cd979       O981   2.000       .  S
O980        C987   1.296       .  A
C982        O986   1.282       .  A
C982       C1033   1.478       .  S
C983       C1627   1.504   1_565  S
C985       C1629   1.455   1_565  S
C987       C1010   1.502       .  S
C988        O989   1.282       .  A
C988       C1028   1.484       .  S
O990       C1006   1.278       .  A
O990       Zn996   2.014       .  S
C991       O1007   1.255       .  A
C991       O1004   1.267       .  A
C991       C1313   1.435       .  S
O992       C1005   1.289       .  A
O992       Cd999   2.182       .  S
O993       C1011   1.275       .  A
O993      Cd1002   2.067       .  S
O994       C1008   1.270       .  A
O994       Cd998   2.090       .  S
O995       C1006   1.284       .  A
O995       Cd998   2.119       .  S
Zn996      O1007   1.949       .  S
Zn996      O1009   1.924       .  S
Zn996      O1001   1.852       .  S
O997       C1008   1.273       .  A
O997      Cd1002   2.064       .  S
Cd998      O1000   2.101       .  S
Cd998      O1001   1.971       .  S
Cd999      O1003   2.186       .  S
Cd999      O1012   2.145       .  S
Cd999      O1001   1.982       .  S
O1000      C1010   1.291       .  A
O1001     Cd1002   1.973       .  S
Cd1002     O1004   2.039       .  S
O1003      C1010   1.301       .  A
C1005      O1009   1.263       .  A
C1006      C1374   1.486       .  S
C1008      C1376   1.476       .  S
C1011      O1012   1.281       .  A
O1013      C1029   1.257       .  A
O1013     Zn1019   1.951       .  S
C1014      O1030   1.277       .  A
C1014      O1027   1.289       .  A
C1014      C1382   1.494   1_565  S
O1015      C1028   1.294       .  A
O1015     Cd1022   2.201       .  S
O1016      C1034   1.295       .  A
O1017      C1031   1.270       .  A
O1017     Cd1021   2.053       .  S
O1018     Cd1021   2.046       .  S
Zn1019     O1030   2.016       .  S
Zn1019     O1032   1.928       .  S
Zn1019     O1024   1.857       .  S
O1020      C1031   1.269       .  A
Cd1021     O1023   2.059       .  S
Cd1022     O1024   1.976       .  S
O1023      C1033   1.274       .  A
O1024     Cd1025   1.966       .  S
Cd1025     O1027   2.142       .  S
O1026      C1033   1.280       .  A
C1028      O1032   1.263       .  A
C1031      C1399   1.471   1_565  S
C1034      O1035   1.303       .  A
C1034      C1056   1.515       .  S
O1036      C1052   1.258       .  A
O1036     Zn1042   1.974       .  S
C1037      O1053   1.254       .  A
C1037      O1050   1.266       .  A
C1037      C1236   1.430       .  S
O1038      C1051   1.282       .  A
O1038     Cd1045   2.121       .  S
O1039      C1057   1.272       .  A
O1040     Cd1044   2.157       .  S
O1041      C1052   1.289       .  A
O1041     Cd1044   2.189       .  S
Zn1042     O1053   1.882       .  S
Zn1042     O1055   1.972       .  S
Zn1042     O1047   1.847       .  S
O1043      C1054   1.274       .  A
Cd1044     O1046   2.201       .  S
Cd1044     O1047   1.987       .  S
Cd1045     O1049   2.113       .  S
Cd1045     O1058   2.090       .  S
Cd1045     O1047   1.956       .  S
O1046      C1056   1.301       .  A
O1047     Cd1048   1.972   1_556  S
Cd1048     O1050   2.050   1_554  S
O1049      C1056   1.292       .  A
C1051      O1055   1.275       .  A
C1051      C1281   1.480       .  S
C1057      C1287   1.477       .  S
O1059      C1075   1.270       .  A
O1059     Zn1065   1.973       .  S
C1060      O1076   1.260       .  A
C1060      O1073   1.269       .  A
C1060      C1144   1.445       .  S
O1061      C1074   1.291       .  A
O1061     Cd1068   2.179       .  S
O1062      C1080   1.275       .  A
O1062     Cd1071   2.087       .  S
O1063      C1077   1.270       .  A
O1063     Cd1067   2.073       .  S
O1064      C1075   1.280       .  A
O1064     Cd1067   2.154       .  S
Zn1065     O1076   1.913       .  S
Zn1065     O1078   1.955       .  S
Zn1065     O1070   1.845       .  S
O1066      C1077   1.275       .  A
O1066     Cd1071   2.073       .  S
Cd1067     O1069   2.093       .  S
Cd1067     O1070   2.002       .  S
Cd1068     O1072   2.186       .  S
Cd1068     O1081   2.146       .  S
Cd1068     O1070   1.991       .  S
O1069      C1079   1.289       .  A
O1070     Cd1071   2.008       .  S
Cd1071     O1073   2.065       .  S
O1072      C1079   1.299       .  A
C1074      O1078   1.267       .  A
C1075      C1167   1.493       .  S
C1077      C1169   1.465       .  S
C1079      C1103   1.503       .  S
C1080      O1081   1.281       .  A
O1082      C1098   1.260       .  A
O1082     Zn1088   1.997       .  S
C1083      O1099   1.281       .  A
C1083      O1096   1.295       .  A
O1084      C1097   1.281       .  A
O1084     Cd1091   2.150       .  S
O1085      C1103   1.296       .  A
O1085     Cd1094   2.172       .  S
O1086      C1100   1.260       .  A
O1086     Cd1090   2.061       .  S
O1087      C1098   1.257       .  A
O1087     Cd1090   2.002       .  S
Zn1088     O1099   2.002       .  S
Zn1088     O1101   2.045       .  S
Zn1088     O1093   1.878       .  S
O1089      C1100   1.281       .  A
O1089     Cd1094   2.158       .  S
Cd1090     O1092   2.066       .  S
Cd1090     O1093   1.984       .  S
Cd1091     O1095   2.055       .  S
Cd1091     O1104   2.102       .  S
Cd1091     O1093   1.941       .  S
O1092      C1102   1.278       .  A
O1093     Cd1094   1.976       .  S
Cd1094     O1096   2.168       .  S
O1095      C1102   1.278       .  A
C1097      O1101   1.279       .  A
C1097      C1442   1.507       .  S
C1098      C1474   1.431       .  S
C1102      C1447   1.460       .  S
C1103      O1104   1.289       .  A
O1105      C1121   1.279       .  A
C1106      O1122   1.264       .  A
C1106      O1119   1.251       .  A
C1106      C1635   1.447       .  S
O1107     Cd1114   2.127       .  S
O1108      C1126   1.272       .  A
O1108     Cd1117   2.048       .  S
O1109      C1123   1.284       .  A
O1109     Cd1113   2.188       .  S
O1110     Cd1113   2.124       .  S
Zn1111     O1122   2.036       .  S
Zn1111     O1116   1.944       .  S
O1112      C1123   1.266       .  A
O1112     Cd1117   1.992       .  S
Cd1113     O1115   2.173       .  S
Cd1113     O1116   2.004       .  S
Cd1114     O1118   2.097       .  S
Cd1114     O1127   2.062       .  S
Cd1114     O1116   1.945       .  S
O1115      C1125   1.297       .  A
O1116     Cd1117   1.914       .  S
Cd1117     O1119   1.988       .  S
O1118      C1125   1.291       .  A
C1120      O1124   1.276       .  A
C1120      C1580   1.497       .  S
C1121      C1353   1.475       .  S
C1123      C1336   1.495       .  S
C1125      C1149   1.499   1_655  S
C1126      O1127   1.278       .  A
C1126      C1586   1.453       .  S
O1128      C1144   1.265       .  A
O1128     Zn1134   2.029       .  S
C1129      O1145   1.275       .  A
C1129      O1142   1.275       .  A
O1130      C1143   1.285       .  A
O1130     Cd1137   2.137       .  S
O1131      C1149   1.288       .  A
O1131     Cd1140   2.081       .  S
O1132      C1146   1.273       .  A
O1132     Cd1136   2.052       .  S
O1133      C1144   1.253       .  A
O1133     Cd1136   1.984       .  S
Zn1134     O1145   2.040       .  S
Zn1134     O1147   2.008       .  S
Zn1134     O1139   1.958       .  S
O1135      C1146   1.276       .  A
O1135     Cd1140   2.054       .  S
Cd1136     O1138   2.006       .  S
Cd1136     O1139   1.917       .  S
Cd1137     O1141   2.190       .  S
Cd1137     O1150   2.188       .  S
Cd1137     O1139   2.006       .  S
O1138      C1148   1.267       .  A
O1139     Cd1140   1.949       .  S
Cd1140     O1142   2.123       .  S
O1141      C1148   1.285       .  A
C1143      O1147   1.276       .  A
C1143      C1172   1.477       .  S
C1148      C1166   1.498       .  S
C1149      O1150   1.300       .  A
O1151      C1167   1.267       .  A
C1152      O1168   1.266       .  A
C1152      O1165   1.268       .  A
O1153     Cd1160   2.194       .  S
O1154      C1172   1.273       .  A
O1154     Cd1163   2.059       .  S
O1155      C1169   1.272       .  A
O1155     Cd1159   2.086       .  S
O1156     Cd1159   2.167   1_554  S
Zn1157     O1168   1.944       .  S
Zn1157     O1162   1.819       .  S
O1158      C1169   1.273       .  A
O1158     Cd1163   2.058       .  S
Cd1159     O1161   2.098       .  S
Cd1159     O1162   1.967       .  S
Cd1160     O1164   2.200       .  S
Cd1160     O1173   2.130       .  S
Cd1160     O1162   1.998       .  S
O1161      C1171   1.293       .  A
O1162     Cd1163   1.947       .  S
Cd1163     O1165   2.038       .  S
O1164      C1171   1.303       .  A
C1166      O1170   1.265       .  A
C1171      C1194   1.507       .  S
C1172      O1173   1.279       .  A
O1174      C1190   1.270       .  A
O1174     Zn1180   1.984       .  S
C1175      O1191   1.267       .  A
C1175      O1188   1.269       .  A
C1175      C1420   1.446       .  S
O1176      C1189   1.284       .  A
O1176     Cd1183   2.185       .  S
O1177      C1195   1.270       .  A
O1177     Cd1186   2.051       .  S
O1178      C1192   1.271       .  A
O1178     Cd1182   2.100       .  S
O1179      C1190   1.283       .  A
O1179     Cd1182   2.137       .  S
Zn1180     O1191   1.951       .  S
Zn1180     O1193   1.961       .  S
Zn1180     O1185   1.838       .  S
O1181      C1192   1.271       .  A
O1181     Cd1186   2.057       .  S
Cd1182     O1184   2.093       .  S
Cd1182     O1185   1.973       .  S
Cd1183     O1187   2.203       .  S
Cd1183     O1196   2.129       .  S
Cd1183     O1185   2.003       .  S
O1184      C1194   1.291       .  A
O1185     Cd1186   1.960       .  S
Cd1186     O1188   2.050       .  S
O1187      C1194   1.303       .  A
C1189      O1193   1.267       .  A
C1189      C1263   1.494       .  S
C1190      C1466   1.484       .  S
C1192      C1468   1.470       .  S
C1195      O1196   1.276       .  A
C1195      C1258   1.474       .  S
O1197      C1213   1.279       .  A
O1197     Zn1203   2.035       .  S
C1198      O1214   1.260       .  A
C1198      O1211   1.253       .  A
C1198      C1512   1.431       .  S
O1199      C1212   1.294       .  A
O1199     Cd1206   2.163       .  S
O1200      C1218   1.258       .  A
O1200     Cd1209   2.046       .  S
O1201      C1215   1.279       .  A
O1201     Cd1205   2.059       .  S
O1202      C1213   1.279       .  A
O1202     Cd1205   2.141       .  S
Zn1203     O1214   2.004       .  S
Zn1203     O1216   2.014       .  S
Zn1203     O1208   1.898       .  S
O1204      C1215   1.280       .  A
O1204     Cd1209   2.078       .  S
Cd1205     O1207   2.105       .  S
Cd1205     O1208   1.940       .  S
Cd1206     O1210   2.164       .  S
Cd1206     O1219   2.177       .  S
Cd1206     O1208   1.970       .  S
O1207      C1217   1.290       .  A
O1208     Cd1209   1.962       .  S
Cd1209     O1211   1.985       .  S
O1210      C1217   1.296       .  A
C1212      O1216   1.282       .  A
C1212      C1309   1.483       .  S
C1213      C1535   1.503       .  S
C1215      C1537   1.463       .  S
C1217      C1241   1.499   1_655  S
C1218      O1219   1.282       .  A
C1218      C1304   1.478       .  S
O1220      C1236   1.261       .  A
O1220     Zn1226   2.009       .  S
C1221      O1237   1.279       .  A
C1221      C1284   1.470       .  S
O1222     Cd1229   2.151       .  S
O1223      C1241   1.296       .  A
O1223     Cd1232   2.162       .  S
O1224      C1238   1.252       .  A
O1224     Cd1228   2.036       .  S
O1225      C1236   1.252       .  A
O1225     Cd1228   1.969       .  S
Zn1226     O1231   1.887       .  S
O1227      C1238   1.280       .  A
O1227     Cd1232   2.177       .  S
Cd1228     O1230   2.069       .  S
Cd1228     O1231   1.962       .  S
Cd1229     O1233   2.068       .  S
Cd1229     O1242   2.108       .  S
Cd1229     O1231   1.941       .  S
O1230      C1240   1.279       .  A
O1231     Cd1232   1.982       .  S
Cd1232     O1234   2.170       .  S
O1233      C1240   1.279       .  A
C1235      O1239   1.277       .  A
C1238      C1282   1.475       .  S
C1241      O1242   1.290       .  A
O1243      C1259   1.265       .  A
O1243     Zn1249   1.984       .  S
C1244      O1260   1.278       .  A
C1244      C1405   1.496       .  S
O1245     Cd1252   2.142       .  S
O1246      C1264   1.288       .  A
O1246     Cd1255   2.071       .  S
O1247      C1261   1.269       .  A
O1247     Cd1251   2.036       .  S
O1248      C1259   1.260       .  A
O1248     Cd1251   1.987       .  S
Zn1249     O1254   1.908       .  S
O1250      C1261   1.272       .  A
O1250     Cd1255   2.079       .  S
Cd1251     O1253   2.032       .  S
Cd1251     O1254   1.916       .  S
Cd1252     O1256   2.175       .  S
Cd1252     O1265   2.164       .  S
Cd1252     O1254   2.009       .  S
O1253      C1263   1.269       .  A
O1254     Cd1255   1.966       .  S
Cd1255     O1257   2.156       .  S
O1256      C1263   1.280       .  A
C1258      O1262   1.281       .  A
C1259      C1451   1.434       .  S
C1261      C1422   1.456       .  S
C1264      O1265   1.297       .  A
C1264      C1286   1.485   1_545  S
O1266      C1282   1.269       .  A
O1266     Zn1272   1.965       .  S
C1267      O1283   1.260       .  A
C1267      O1280   1.265       .  A
O1268      C1281   1.280       .  A
O1268     Cd1275   2.101       .  S
O1269      C1287   1.275       .  A
O1269     Cd1278   2.084       .  S
O1270      C1284   1.276       .  A
O1270     Cd1274   2.117       .  S
O1271      C1282   1.286       .  A
O1271     Cd1274   2.152       .  S
Zn1272     O1283   1.947       .  S
Zn1272     O1285   2.012       .  S
Zn1272     O1277   1.857       .  S
O1273      C1284   1.273       .  A
O1273     Cd1278   2.066       .  S
Cd1274     O1276   2.152       .  S
Cd1274     O1277   1.992       .  S
Cd1275     O1279   2.071       .  S
Cd1275     O1288   2.082       .  S
Cd1275     O1277   1.964       .  S
O1276      C1286   1.294       .  A
O1277     Cd1278   1.976       .  S
Cd1278     O1280   2.024       .  S
O1279      C1286   1.288       .  A
C1281      O1285   1.276       .  A
C1287      O1288   1.268       .  A
O1289      C1305   1.255       .  A
O1289     Zn1295   1.898       .  S
C1290      O1306   1.277   1_556  A
C1290      C1497   1.484       .  S
O1291     Cd1298   2.169       .  S
O1292      C1310   1.292       .  A
O1292     Cd1301   2.114       .  S
O1293      C1307   1.274       .  A
O1293     Cd1297   2.070       .  S
O1294      C1305   1.267       .  A
O1294     Cd1297   2.036       .  S
Zn1295     O1300   1.865       .  S
O1296      C1307   1.272       .  A
O1296     Cd1301   2.096       .  S
Cd1297     O1299   2.062       .  S
Cd1297     O1300   1.972       .  S
Cd1298     O1302   2.154       .  S
Cd1298     O1311   2.179       .  S
Cd1298     O1300   1.977       .  S
O1299      C1309   1.272       .  A
O1300     Cd1301   1.968       .  S
Cd1301     O1303   2.115       .  S
O1302      C1309   1.282       .  A
C1304      O1308   1.264   1_556  A
C1305      C1520   1.428       .  S
C1307      C1514   1.476       .  S
C1310      O1311   1.298       .  A
C1310      C1332   1.507       .  S
O1312      C1328   1.281       .  A
O1312     Zn1318   1.998       .  S
C1313      O1329   1.261       .  A
C1313      O1326   1.256       .  A
O1314      C1327   1.282       .  A
O1314     Cd1321   2.159       .  S
O1315      C1333   1.277       .  A
O1315     Cd1324   2.062       .  S
O1316      C1330   1.282       .  A
O1316     Cd1320   2.158       .  S
O1317      C1328   1.294       .  A
O1317     Cd1320   2.159       .  S
Zn1318     O1329   2.006       .  S
Zn1318     O1331   2.039       .  S
Zn1318     O1323   1.881       .  S
O1319      C1330   1.261       .  A
O1319     Cd1324   2.055       .  S
Cd1320     O1322   2.168       .  S
Cd1320     O1323   1.968       .  S
Cd1321     O1325   2.121       .  S
Cd1321     O1334   2.059       .  S
Cd1321     O1323   1.944       .  S
O1322      C1332   1.296       .  A
O1323     Cd1324   1.985       .  S
Cd1324     O1326   2.004       .  S
O1325      C1332   1.291       .  A
C1327      O1331   1.278       .  A
C1328      C1379   1.476       .  S
C1330      C1373   1.476       .  S
C1333      O1334   1.279       .  A
O1335      C1351   1.264       .  A
O1335     Zn1341   1.938       .  S
C1336      O1352   1.266       .  A
C1336      O1349   1.282       .  A
O1337      C1350   1.285       .  A
O1337     Cd1344   2.152       .  S
O1338      C1356   1.303       .  A
O1338     Cd1347   2.194       .  S
O1339      C1353   1.271       .  A
O1339     Cd1343   2.056       .  S
O1340      C1351   1.271       .  A
O1340     Cd1343   2.056       .  S
Zn1341     O1352   1.939       .  S
Zn1341     O1354   1.986       .  S
Zn1341     O1346   1.810       .  S
O1342      C1353   1.276       .  A
O1342     Cd1347   2.128       .  S
Cd1343     O1345   2.053       .  S
Cd1343     O1346   1.958       .  S
Cd1344     O1348   2.087       .  S
Cd1344     O1357   2.097       .  S
Cd1344     O1346   1.967       .  S
O1345      C1355   1.271       .  A
O1346     Cd1347   1.995       .  S
Cd1347     O1349   2.185       .  S
O1348      C1355   1.271       .  A
C1350      O1354   1.269       .  A
C1350      C1650   1.488       .  S
C1351      C1566   1.441       .  S
C1355      C1652   1.463       .  S
C1356      O1357   1.292       .  A
C1356      C1378   1.503   1_545  S
O1358      C1374   1.273       .  A
C1359      O1375   1.255       .  A
C1359      O1372   1.267       .  A
O1360     Cd1367   2.172   1_554  S
O1361      C1379   1.273       .  A
O1361     Cd1370   2.065       .  S
O1362      C1376   1.270       .  A
O1362     Cd1366   2.085       .  S
O1363     Cd1366   2.116   1_554  S
Zn1364     O1375   1.902       .  S
Zn1364     O1369   1.869       .  S
O1365      C1376   1.276       .  A
O1365     Cd1370   2.086       .  S
Cd1366     O1368   2.103       .  S
Cd1366     O1369   1.961       .  S
Cd1367     O1371   2.173       .  S
Cd1367     O1380   2.136       .  S
Cd1367     O1369   1.982       .  S
O1368      C1378   1.291       .  A
O1369     Cd1370   1.965       .  S
Cd1370     O1372   2.036       .  S
O1371      C1378   1.296       .  A
C1373      O1377   1.263       .  A
C1379      O1380   1.280       .  A
O1381      C1397   1.257       .  A
O1381     Zn1387   1.900       .  S
C1382      O1398   1.277       .  A
C1382      O1395   1.282       .  A
O1383      C1396   1.288       .  A
O1383     Cd1390   2.161       .  S
O1384      C1402   1.289       .  A
O1384     Cd1393   2.091       .  S
O1385      C1399   1.277       .  A
O1385     Cd1389   2.085       .  S
O1386      C1397   1.268       .  A
O1386     Cd1389   2.043       .  S
Zn1387     O1398   2.009       .  S
Zn1387     O1400   1.980       .  S
Zn1387     O1392   1.862       .  S
O1388      C1399   1.271       .  A
O1388     Cd1393   2.077       .  S
Cd1389     O1391   2.070       .  S
Cd1389     O1392   1.981       .  S
Cd1390     O1394   2.152       .  S
Cd1390     O1403   2.179       .  S
Cd1390     O1392   1.989       .  S
O1391      C1401   1.272       .  A
O1392     Cd1393   1.965       .  S
Cd1393     O1395   2.133       .  S
O1394      C1401   1.280       .  A
C1396      O1400   1.262       .  A
C1396      C1632   1.470       .  S
C1401      C1626   1.485       .  S
C1402      O1403   1.297       .  A
C1402      C1425   1.502       .  S
O1404      C1420   1.272       .  A
O1404     Zn1410   2.012       .  S
C1405      O1421   1.274       .  A
C1405      O1418   1.283       .  A
O1406      C1419   1.290       .  A
O1406     Cd1413   2.169       .  S
O1407      C1425   1.291       .  A
O1407     Cd1416   2.100       .  S
O1408      C1422   1.265       .  A
O1408     Cd1412   2.006       .  S
O1409      C1420   1.260       .  A
O1409     Cd1412   2.000       .  S
Zn1410     O1421   2.020       .  S
Zn1410     O1423   1.988       .  S
Zn1410     O1415   1.892       .  S
O1411      C1422   1.270       .  A
O1411     Cd1416   2.089       .  S
Cd1412     O1414   2.040       .  S
Cd1412     O1415   1.913       .  S
Cd1413     O1417   2.165       .  S
Cd1413     O1426   2.182       .  S
Cd1413     O1415   2.006       .  S
O1414      C1424   1.266       .  A
O1415     Cd1416   1.977       .  S
Cd1416     O1418   2.153       .  S
O1417      C1424   1.282       .  A
C1419      O1423   1.273       .  A
C1419      C1471   1.482       .  S
C1424      C1465   1.481       .  S
C1425      O1426   1.299       .  A
O1427      C1443   1.260       .  A
O1427     Zn1433   2.018       .  S
C1428      O1444   1.281       .  A
C1428      O1441   1.295       .  A
C1428      C1491   1.476       .  S
O1429      C1442   1.282       .  A
O1430      C1448   1.293       .  A
O1430     Cd1439   2.144       .  S
O1431      C1445   1.259       .  A
O1431     Cd1435   2.055       .  S
O1432     Cd1435   1.989       .  S
Zn1433     O1444   1.991       .  S
Zn1433     O1446   2.025       .  S
O1434      C1445   1.279       .  A
O1434     Cd1439   2.166       .  S
Cd1435     O1437   2.072       .  S
Cd1435     O1438   1.963       .  S
Cd1436     O1440   2.055       .  S
Cd1436     O1449   2.110       .  S
Cd1436     O1438   1.934       .  S
O1437      C1447   1.280       .  A
O1438     Cd1439   1.982       .  S
O1440      C1447   1.278       .  A
C1442      O1446   1.278       .  A
C1445      C1489   1.477       .  S
C1448      O1449   1.292       .  A
C1448      C1470   1.493       .  S
O1450      C1466   1.271       .  A
O1450     Zn1456   1.972       .  S
C1451      O1467   1.260       .  A
C1451      O1464   1.270       .  A
O1452      C1465   1.291       .  A
O1452     Cd1459   2.181       .  S
O1453      C1471   1.277       .  A
O1454     Cd1458   2.086       .  S
O1455      C1466   1.276       .  A
O1455     Cd1458   2.129       .  S
Zn1456     O1467   1.915       .  S
Zn1456     O1469   1.965       .  S
Zn1456     O1461   1.812       .  S
O1457      C1468   1.275       .  A
Cd1458     O1460   2.073       .  S
Cd1458     O1461   1.965       .  S
Cd1459     O1463   2.184       .  S
Cd1459     O1472   2.151       .  S
Cd1459     O1461   1.982       .  S
O1460      C1470   1.288       .  A
O1461     Cd1462   1.959       .  S
Cd1462     O1464   2.057       .  S
O1463      C1470   1.302       .  A
C1465      O1469   1.266       .  A
O1473      C1489   1.261       .  A
O1473     Zn1479   1.915       .  S
C1474      O1490   1.256       .  A
C1474      O1487   1.267       .  A
O1475      C1488   1.286       .  A
O1475     Cd1482   2.134       .  S
O1476      C1494   1.273       .  A
O1476     Cd1485   2.068       .  S
O1477      C1491   1.280       .  A
O1477     Cd1481   2.135       .  S
O1478      C1489   1.289       .  A
O1478     Cd1481   2.184       .  S
Zn1479     O1490   1.941       .  S
Zn1479     O1492   1.997       .  S
Zn1479     O1484   1.844       .  S
O1480      C1491   1.274       .  A
O1480     Cd1485   2.068       .  S
Cd1481     O1483   2.179       .  S
Cd1481     O1484   1.990       .  S
Cd1482     O1486   2.111       .  S
Cd1482     O1495   2.093       .  S
Cd1482     O1484   1.969       .  S
O1483      C1493   1.299       .  A
O1484     Cd1485   1.980       .  S
Cd1485     O1487   2.043       .  S
O1486      C1493   1.294       .  A
C1488      O1492   1.275       .  A
C1493      C1517   1.503       .  S
C1494      O1495   1.270       .  A
O1496      C1512   1.256       .  A
O1496     Zn1502   1.899       .  S
C1497      O1513   1.276       .  A
C1497      O1510   1.281       .  A
O1498      C1511   1.289       .  A
O1498     Cd1505   2.174       .  S
O1499      C1517   1.289       .  A
O1499     Cd1508   2.097       .  S
O1500      C1514   1.275       .  A
O1500     Cd1504   2.083       .  S
O1501      C1512   1.268       .  A
O1501     Cd1504   2.041       .  S
Zn1502     O1513   1.999       .  S
Zn1502     O1515   1.978       .  S
Zn1502     O1507   1.870       .  S
O1503      C1514   1.271       .  A
O1503     Cd1508   2.087       .  S
Cd1504     O1506   2.068       .  S
Cd1504     O1507   1.976       .  S
Cd1505     O1509   2.143       .  S
Cd1505     O1518   2.178       .  S
Cd1505     O1507   1.984       .  S
O1506      C1516   1.273       .  A
O1507     Cd1508   1.964       .  S
Cd1508     O1510   2.118       .  S
O1509      C1516   1.281       .  A
C1511      O1515   1.260       .  A
C1511      C1540   1.475       .  S
C1516      C1534   1.478       .  S
C1517      O1518   1.297       .  A
O1519      C1535   1.279       .  A
O1519     Zn1525   2.039       .  S
C1520      O1536   1.260       .  A
C1520      O1533   1.252       .  A
O1521      C1534   1.296       .  A
O1521     Cd1528   2.170       .  S
O1522      C1540   1.263   1_554  A
O1523     Cd1527   2.048       .  S
O1524      C1535   1.279       .  A
O1524     Cd1527   2.141       .  S
Zn1525     O1536   2.006       .  S
Zn1525     O1538   1.992       .  S
Zn1525     O1530   1.883       .  S
O1526      C1537   1.279   1_554  A
Cd1527     O1529   2.089       .  S
Cd1527     O1530   1.943       .  S
Cd1528     O1532   2.167       .  S
Cd1528     O1541   2.190       .  S
Cd1528     O1530   1.973       .  S
O1529      C1539   1.287       .  A
O1530     Cd1531   1.967       .  S
Cd1531     O1533   1.976       .  S
O1532      C1539   1.298       .  A
C1534      O1538   1.280       .  A
C1539      C1563   1.493       .  S
O1542      C1558   1.261       .  A
O1542     Zn1548   1.995       .  S
C1543      O1559   1.280       .  A
C1543      O1556   1.294       .  A
C1543      C1608   1.479       .  S
O1544      C1557   1.280       .  A
O1545      C1563   1.290       .  A
O1545     Cd1554   2.127       .  S
O1546      C1560   1.261       .  A
O1546     Cd1550   2.057       .  S
O1547     Cd1550   1.998       .  S
Zn1548     O1559   2.002       .  S
Zn1548     O1561   2.040       .  S
O1549      C1560   1.279       .  A
O1549     Cd1554   2.140       .  S
Cd1550     O1552   2.053       .  S
Cd1550     O1553   1.980       .  S
Cd1551     O1555   2.064       .  S
Cd1551     O1564   2.125       .  S
Cd1551     O1553   1.943       .  S
O1552      C1562   1.275       .  A
O1553     Cd1554   1.965       .  S
O1555      C1562   1.280       .  A
C1557      O1561   1.279       .  A
C1560      C1603   1.469       .  S
C1563      O1564   1.293       .  A
O1565      C1581   1.276       .  A
O1565     Zn1571   1.995       .  S
C1566      O1582   1.265       .  A
C1566      O1579   1.259       .  A
O1567      C1580   1.279       .  A
O1567     Cd1574   2.134       .  S
O1568      C1586   1.272       .  A
O1568     Cd1577   2.027       .  S
O1569      C1583   1.280       .  A
O1569     Cd1573   2.159       .  S
O1570      C1581   1.293       .  A
O1570     Cd1573   2.176       .  S
Zn1571     O1582   1.993       .  S
Zn1571     O1584   2.045       .  S
Zn1571     O1576   1.898       .  S
O1572      C1583   1.262       .  A
O1572     Cd1577   2.048       .  S
Cd1573     O1575   2.183       .  S
Cd1573     O1576   2.004       .  S
Cd1574     O1578   2.073       .  S
Cd1574     O1587   2.054       .  S
Cd1574     O1576   1.954       .  S
O1575      C1585   1.299       .  A
O1576     Cd1577   1.939       .  S
Cd1577     O1579   1.985       .  S
O1578      C1585   1.286       .  A
C1580      O1584   1.279       .  A
C1581      C1655   1.487       .  S
C1583      C1649   1.473       .  S
C1585      C1609   1.497       .  S
C1586      O1587   1.270       .  A
O1588      C1604   1.257       .  A
O1588     Zn1594   1.901       .  S
C1589      O1605   1.275       .  A
C1589      O1602   1.282       .  A
O1590      C1603   1.287       .  A
O1590     Cd1597   2.156       .  S
O1591      C1609   1.291       .  A
O1591     Cd1600   2.102       .  S
O1592      C1606   1.277       .  A
O1592     Cd1596   2.087       .  S
O1593      C1604   1.267       .  A
O1593     Cd1596   2.043       .  S
Zn1594     O1605   1.988       .  S
Zn1594     O1607   1.982       .  S
Zn1594     O1599   1.854       .  S
O1595      C1606   1.272       .  A
O1595     Cd1600   2.092       .  S
Cd1596     O1598   2.066       .  S
Cd1596     O1599   1.977       .  S
Cd1597     O1601   2.134       .  S
Cd1597     O1610   2.159       .  S
Cd1597     O1599   1.991       .  S
O1598      C1608   1.272       .  A
O1599     Cd1600   1.964       .  S
Cd1600     O1602   2.127       .  S
O1601      C1608   1.278       .  A
C1603      O1607   1.262       .  A
C1609      O1610   1.294       .  A
O1611      C1627   1.277       .  A
O1611     Zn1617   2.036       .  S
C1612      O1628   1.262       .  A
O1613      C1626   1.293       .  A
O1614      C1632   1.262       .  A
O1614     Cd1623   2.056       .  S
O1615      C1629   1.277       .  A
O1615     Cd1619   2.048       .  S
O1616      C1627   1.280       .  A
Zn1617     O1628   1.996       .  S
Zn1617     O1630   1.998       .  S
O1618      C1629   1.277       .  A
O1618     Cd1623   2.058       .  S
Cd1619     O1621   2.110       .  S
Cd1619     O1622   1.940       .  S
Cd1620     O1624   2.164       .  S
Cd1620     O1633   2.139       .  S
Cd1620     O1622   1.969       .  S
O1621      C1631   1.290       .  A
O1622     Cd1623   1.979       .  S
Cd1623     O1625   2.003       .  S
O1624      C1631   1.295       .  A
C1626      O1630   1.277       .  A
C1631      C1654   1.504       .  S
C1632      O1633   1.279       .  A
O1634      C1650   1.272       .  A
O1634     Zn1640   1.987       .  S
C1635      O1651   1.263       .  A
C1635      O1648   1.271       .  A
O1636      C1649   1.290       .  A
O1636     Cd1643   2.163       .  S
O1637      C1655   1.272       .  A
O1638     Cd1642   2.069       .  S
O1639      C1650   1.280       .  A
O1639     Cd1642   2.139       .  S
Zn1640     O1651   1.928       .  S
Zn1640     O1653   1.965       .  S
Zn1640     O1645   1.844       .  S
O1641      C1652   1.276       .  A
Cd1642     O1644   2.092       .  S
Cd1642     O1645   1.987       .  S
Cd1643     O1647   2.184       .  S
Cd1643     O1656   2.142       .  S
Cd1643     O1645   1.986       .  S
O1644      C1654   1.288       .  A
O1645     Cd1646   2.003       .  S
Cd1646     O1648   2.076       .  S
O1647      C1654   1.299       .  A
C1649      O1653   1.267       .  A
