geometry optimzed in LAMMPS
_audit_creation_date              2020-12-01 
_audit_creation_method            'lammps2cif' 
_symmetry_space_group_name_H-M    'P1' 
_symmetry_Int_Tables_number       1 
_symmetry_cell_setting            triclinic 
loop_ 
_symmetry_equiv_pos_as_xyz 
  x,y,z 
_cell_length_a                    49.81408246 
_cell_length_b                    50.0896862677277 
_cell_length_c                    48.65485946300024 
_cell_angle_alpha                 89.66991989743421 
_cell_angle_beta                  90.42858872320654 
_cell_angle_gamma                 120.11569665563862 
loop_ 
_atom_site_label 
_atom_site_type_symbol 
_atom_site_fract_x 
_atom_site_fract_y 
_atom_site_fract_z 
_atom_site_charge 
O1          O  0.34346659  0.40897995  0.30745707    -0.81700
O2          O  0.37789052  0.41452304  0.43464883    -0.66400
O3          O  0.34730358  0.39032219  0.36123300    -1.13000
C4          C  0.27178351  0.41561772  0.39201822     1.05200
O5          O  0.33132304  0.38497744  0.45168296    -0.79600
O6          O  0.27762988  0.35880266  0.42150343    -0.67200
Ni7        Ni  0.37534314  0.41244479  0.33192788     1.34900
C8          C  0.26990947  0.34548541  0.39832177     0.83900
O9          O  0.39749653  0.39515892  0.39233432    -0.80200
O10         O  0.41108778  0.41695140  0.35108254    -0.90400
C11         C  0.36076951  0.39901360  0.45452280     0.83500
O12         O  0.38294250  0.45191061  0.34477767    -0.68600
O13         O  0.28034386  0.41377142  0.41652269    -0.87900
C14         C  0.39414801  0.46357204  0.36818539     0.84300
C15         C  0.41745495  0.40799583  0.37336851     1.05900
H16         H  0.34089361  0.43510323  0.40087485     0.37700
O17         O  0.33190863  0.41295804  0.40092496    -1.10600
O18         O  0.28503804  0.35745915  0.37633515    -0.67200
Ni19       Ni  0.31434031  0.39933989  0.36546097     1.26300
O20         O  0.39185448  0.44637637  0.38842498    -0.67500
O21         O  0.28321707  0.41054419  0.37064633    -0.79800
C22         C  0.31406035  0.39346414  0.30734646     0.83700
O23         O  0.29817208  0.38552241  0.32920029    -0.66900
Ni24       Ni  0.30672697  0.39976307  0.43271931     1.27400
Ni25       Ni  0.36417541  0.40344184  0.39746969     1.26100
H26         H  0.33919955  0.36839919  0.35920706     0.38200
O27         O  0.41711264  0.34522080  0.69737399    -0.81700
O28         O  0.42111488  0.38133063  0.57065265    -0.66400
O29         O  0.39994524  0.34852940  0.64344594    -1.13000
C30         C  0.42995552  0.27776205  0.60897140     1.05200
O31         O  0.39377983  0.33472285  0.55220443    -0.79600
O32         O  0.36976519  0.28159178  0.58191217    -0.67200
Ni33       Ni  0.42143424  0.37696363  0.67276474     1.34900
C34         C  0.35766621  0.27209236  0.60538930     0.83900
O35         O  0.40129129  0.39811521  0.61419264    -0.80200
O36         O  0.42693805  0.41309464  0.65365941    -0.90400
C37         C  0.40481218  0.36382525  0.55119414     0.83500
O38         O  0.46038665  0.38326842  0.65985948    -0.68600
O39         O  0.42589652  0.28554851  0.58485168    -0.87900
C40         C  0.47222932  0.39526584  0.63678375     0.84300
C41         C  0.41530644  0.41851411  0.63253643     1.05900
H42         H  0.44572555  0.34604496  0.60136633     0.37700
O43         O  0.42338565  0.33602657  0.60218689    -1.10600
O44         O  0.37058326  0.28604141  0.62776771    -0.67200
Ni45       Ni  0.41241143  0.31809059  0.63771754     1.26300
O46         O  0.45510670  0.39486835  0.61688120    -0.67500
O47         O  0.42681085  0.28978069  0.63087741    -0.79800
C48         C  0.40694262  0.31643560  0.69659056     0.83700
O49         O  0.40180286  0.30148054  0.67431704    -0.66900
Ni50       Ni  0.41033846  0.31125526  0.57008748     1.27400
Ni51       Ni  0.41177450  0.36655441  0.60754901     1.26100
H52         H  0.37774840  0.33887109  0.64576251     0.38200
O53         O  0.08986058  0.43286998  0.30971730    -0.81700
O54         O  0.10075075  0.46083305  0.43904076    -0.66400
O55         O  0.11409916  0.45120904  0.36334515    -1.13000
C56         C  0.08407163  0.34819960  0.39064388     1.05200
O57         O  0.12489621  0.43658982  0.45456166    -0.79600
O58         O  0.14893913  0.41467503  0.41704082    -0.67200
Ni59       Ni  0.09532520  0.46402933  0.33566963     1.34900
C60         C  0.15853588  0.41925564  0.39241305     0.83900
O61         O  0.12051893  0.49972078  0.39727972    -0.80200
O62         O  0.09999750  0.49867939  0.35634810    -0.90400
C63         C  0.11651903  0.45666347  0.45736920     0.83500
O64         O  0.05460187  0.43826771  0.34979162    -0.68600
O65         O  0.09388489  0.35969249  0.41451232    -0.87900
C66         C  0.04551325  0.43802854  0.37420674     0.84300
C67         C  0.11306877  0.01264361  0.37457424     1.05900
H68         H  0.06982974  0.40240180  0.40672386     0.37700
O69         O  0.09200566  0.41333429  0.40396597    -1.10600
O70         O  0.14118563  0.41654563  0.37206895    -0.67200
Ni71       Ni  0.09909323  0.40761850  0.36649291     1.26300
O72         O  0.06371973  0.44688347  0.39503882    -0.67500
O73         O  0.08322531  0.36412975  0.37055250    -0.79800
C74         C  0.09869274  0.41318532  0.30794880     0.83700
O75         O  0.10605389  0.40284893  0.32870741    -0.66900
Ni76       Ni  0.10874168  0.39920491  0.43253570     1.27400
Ni77       Ni  0.10640508  0.45651547  0.40095626     1.26100
H78         H  0.13624673  0.46230731  0.36034796     0.38200
O79         O  0.16573055  0.09110455  0.68640496    -0.81700
O80         O  0.13863594  0.04155097  0.56622296    -0.66400
O81         O  0.16306751  0.05634577  0.64142758    -1.13000
C82         C  0.24620817  0.15090387  0.60542866     1.05200
O83         O  0.18681281  0.05680304  0.55328315    -0.79600
O84         O  0.23835833  0.08728590  0.58550726    -0.67200
Ni85       Ni  0.13488796  0.05370382  0.66899162     1.34900
C86         C  0.24086390  0.07836980  0.60936035     0.83900
O87         O  0.11482692  0.50681125  0.61376392    -0.80200
O88         O  0.09966861  0.51355649  0.65512487    -0.90400
C89         C  0.15756521  0.04062193  0.54945150     0.83500
O90         O  0.12069607  0.07747640  0.65013407    -0.68600
O91         O  0.23581985  0.13972259  0.58155721    -0.87900
C92         C  0.11533911  0.07968605  0.62499655     0.84300
C93         C  0.09587250  0.49728547  0.63375951     1.05900
H94         H  0.17553112  0.10379396  0.59615848     0.37700
O95         O  0.18339010  0.08980123  0.59864596    -1.10600
O96         O  0.22349615  0.07638146  0.62924999    -0.67200
Ni97       Ni  0.19906658  0.09590220  0.63518792     1.26300
O98         O  0.12260959  0.06704271  0.60607626    -0.67500
O99         O  0.23492235  0.13596215  0.62780697    -0.79800
C100        C  0.19344905  0.09807082  0.69175708     0.83700
O101        O  0.21159012  0.09969549  0.67287009    -0.66900
Ni102      Ni  0.21037858  0.09800874  0.56863651     1.27400
Ni103      Ni  0.14915876  0.04907777  0.60434783     1.26100
H104        H  0.16950693  0.04165431  0.64629936     0.38200
O105        O  0.08813477  0.15533831  0.30945560    -0.81700
O106        O  0.03966203  0.12839061  0.43022225    -0.66400
O107        O  0.05398481  0.15263875  0.35500284    -1.13000
C108        C  0.14927007  0.23494280  0.39136701     1.05200
O109        O  0.05507821  0.17652665  0.44247540    -0.79600
O110        O  0.08541438  0.22744979  0.41115931    -0.67200
Ni111      Ni  0.05118443  0.12442013  0.32753169     1.34900
C112        C  0.07621487  0.23014052  0.38746820     0.83900
O113        O  0.00586574  0.10497631  0.38430622    -0.80200
O114        O  0.01329508  0.09089880  0.34274551    -0.90400
C115        C  0.03967468  0.14768790  0.44707413     0.83500
O116        O  0.07572474  0.11039226  0.34588353    -0.68600
O117        O  0.13804785  0.22449755  0.41511091    -0.87900
C118        C  0.07666783  0.10382470  0.37093923     0.84300
C119        C  0.49659522  0.08638386  0.36401193     1.05900
H120        H  0.10186823  0.16460993  0.39999591     0.37700
O121        O  0.08792275  0.17260019  0.39764483    -1.10600
O122        O  0.07443965  0.21317275  0.36731583    -0.67200
Ni123      Ni  0.09385944  0.18847966  0.36125653     1.26300
O124        O  0.06416662  0.11147057  0.38984243    -0.67500
O125        O  0.13433232  0.22402490  0.36882662    -0.79800
C126        C  0.09548709  0.18313465  0.30451810     0.83700
O127        O  0.09747132  0.20109597  0.32368555    -0.66900
Ni128      Ni  0.09627882  0.19952142  0.42768014     1.27400
Ni129      Ni  0.04679957  0.13870127  0.39201846     1.26100
H130        H  0.03921135  0.15906142  0.35017413     0.38200
O131        O  0.44112361  0.09300888  0.69189456    -0.81700
O132        O  0.46908819  0.09854987  0.56431291    -0.66400
O133        O  0.46283709  0.11721094  0.63891898    -1.13000
C134        C  0.35998065  0.08884804  0.61042750     1.05200
O135        O  0.44953272  0.12713174  0.54918418    -0.79600
O136        O  0.42413683  0.15152446  0.58303416    -0.67200
Ni137      Ni  0.47399956  0.09845581  0.66784324     1.34900
C138        C  0.43142199  0.16317339  0.60692650     0.83900
O139        O  0.50902278  0.11858913  0.60556862    -0.80200
O140        O  0.50947936  0.10273715  0.64837275    -0.90400
C141        C  0.46657521  0.11511756  0.54588441     0.83500
O142        O  0.44866229  0.05719848  0.65483943    -0.68600
O143        O  0.37073683  0.09534435  0.58600056    -0.87900
C144        C  0.44655697  0.04675811  0.63069360     0.84300
C145        C  0.02172917  0.11170400  0.62480864     1.05900
H146        H  0.41167049  0.07289488  0.59762112     0.37700
O147        O  0.42394174  0.09508747  0.59904157    -1.10600
O148        O  0.43204548  0.14798603  0.62771522    -0.67200
Ni149      Ni  0.42002381  0.10560264  0.63555997     1.26300
O150        O  0.45440250  0.06382382  0.60925470    -0.67500
O151        O  0.37692721  0.09239867  0.63134174    -0.79800
C152        C  0.42349354  0.10447331  0.69317077     0.83700
O153        O  0.41692166  0.11553980  0.67254327    -0.66900
Ni154      Ni  0.41089658  0.11099406  0.56920169     1.27400
Ni155      Ni  0.46643158  0.10674205  0.60194088     1.26100
H156        H  0.47547252  0.13932489  0.64096336     0.38200
O157        O  0.06920438  0.14969444  0.18698209    -0.81700
O158        O  0.08091592  0.12059526  0.06397631    -0.66400
O159        O  0.09698854  0.14669776  0.13848001    -1.13000
C160        C  0.08364642  0.22854338  0.10388037     1.05200
O161        O  0.11416890  0.16766694  0.04913966    -0.79600
O162        O  0.13922220  0.21954580  0.08111424    -0.67200
Ni163      Ni  0.07391079  0.11894863  0.16748627     1.34900
C164        C  0.15130408  0.22251822  0.10479677     0.83900
O165        O  0.09492877  0.09918344  0.10839129    -0.80200
O166        O  0.07732679  0.08567975  0.15139553    -0.90400
C167        C  0.09964557  0.13847727  0.04595812     0.83500
O168        O  0.03401960  0.10454901  0.15150043    -0.68600
O169        O  0.08474370  0.21910536  0.07979242    -0.87900
C170        C  0.02451543  0.09882389  0.12681859     0.84300
C171        C  0.08758523  0.08123153  0.12895840     1.05900
H172        H  0.05859175  0.15826801  0.09484959     0.37700
O173        O  0.08061543  0.16600723  0.09656859    -1.10600
O174        O  0.13595802  0.20619772  0.12518623    -0.67200
Ni175      Ni  0.09226707  0.18182309  0.13278669     1.26300
O176        O  0.04318222  0.10586016  0.10673340    -0.67500
O177        O  0.08708061  0.21680166  0.12604874    -0.79800
C178        C  0.08973151  0.17785505  0.19011518     0.83700
O179        O  0.10343817  0.19511398  0.16979810    -0.66900
Ni180      Ni  0.09894313  0.19256744  0.06590220     1.27400
Ni181      Ni  0.08757277  0.13231249  0.10172146     1.26100
H182        H  0.11859553  0.15340151  0.14189149     0.38200
O183        O  0.14881308  0.07873298  0.80283187    -0.81700
O184        O  0.11423407  0.08056913  0.92892410    -0.66400
O185        O  0.14497625  0.09917770  0.85549516    -1.13000
C186        C  0.21922008  0.07304903  0.89103836     1.05200
O187        O  0.16187538  0.10760885  0.94585765    -0.79600
O188        O  0.21464082  0.12918056  0.91633826    -0.67200
Ni189      Ni  0.11758749  0.08024219  0.82509054     1.34900
C190        C  0.22099219  0.14265128  0.89315595     0.83900
O191        O  0.09726248  0.10013374  0.88475725    -0.80200
O192        O  0.08324373  0.08107528  0.84250817    -0.90400
C193        C  0.13275812  0.09667220  0.94801806     0.83500
O194        O  0.10329715  0.03942033  0.83838152    -0.68600
O195        O  0.20821567  0.07236079  0.91485092    -0.87900
C196        C  0.09119140  0.02897016  0.86175538     0.84300
C197        C  0.07798848  0.09063766  0.86490552     1.05900
H198        H  0.14775859  0.05390109  0.89726788     0.37700
O199        O  0.15816720  0.07614206  0.89685955    -1.10600
O200        O  0.20492150  0.13060260  0.87168906    -0.67200
Ni201      Ni  0.17668037  0.08862580  0.86170927     1.26300
O202        O  0.09716276  0.04593071  0.88301567    -0.67500
O203        O  0.20858871  0.07826853  0.86893513    -0.79800
C204        C  0.17834571  0.09284216  0.80381539     0.83700
O205        O  0.19351584  0.10117642  0.82604547    -0.66900
Ni206      Ni  0.18376252  0.08931809  0.92884306     1.27400
Ni207      Ni  0.12787055  0.08845213  0.89154340     1.26100
H208        H  0.15433193  0.12124858  0.85326138     0.38200
O209        O  0.07813235  0.41743829  0.18994485    -0.81700
O210        O  0.03380517  0.40437486  0.06790507    -0.66400
O211        O  0.04473881  0.38693078  0.14235993    -1.13000
C212        C  0.14419824  0.40961531  0.11059047     1.05200
O213        O  0.05315874  0.37625084  0.05167236    -0.79600
O214        O  0.08234558  0.35352181  0.08259507    -0.67200
Ni215      Ni  0.04026800  0.40914772  0.17200190     1.34900
C216        C  0.07619731  0.34006457  0.10572191     0.83900
O217        O  0.99828682  0.39108909  0.11241778    -0.80200
O218        O  0.00199125  0.40314811  0.15722832    -0.90400
C219        C  0.03452675  0.38666694  0.04971161     0.83500
O220        O  0.06204876  0.44964696  0.15625974    -0.68600
O221        O  0.13436239  0.40922880  0.08603719    -0.87900
C222        C  0.06374114  0.45908343  0.13170501     0.84300
C223        C  0.48874030  0.39842152  0.13385353     1.05900
H224        H  0.09423806  0.42869896  0.10117224     0.37700
O225        O  0.08096579  0.40654420  0.10150322    -1.10600
O226        O  0.07207614  0.35167620  0.12754951    -0.67200
Ni227      Ni  0.08582063  0.39429657  0.13739230     1.26300
O228        O  0.05520041  0.44098534  0.11124902    -0.67500
O229        O  0.12751374  0.40418525  0.13182185    -0.79800
C230        C  0.08701183  0.39810727  0.19418202     0.83700
O231        O  0.08866729  0.38255737  0.17449638    -0.66900
Ni232      Ni  0.09325423  0.39350943  0.07007537     1.27400
Ni233      Ni  0.03914735  0.39752872  0.10579127     1.26100
H234        H  0.03071466  0.36513744  0.14525576     0.38200
O235        O  0.40213794  0.33065925  0.81715898    -0.81700
O236        O  0.44552158  0.35791477  0.93865676    -0.66400
O237        O  0.43748629  0.33433139  0.86301660    -1.13000
C238        C  0.34469929  0.24798149  0.89624331     1.05200
O239        O  0.43875205  0.31230477  0.94999243    -0.79600
O240        O  0.41449421  0.26084243  0.91715667    -0.67200
Ni241      Ni  0.44001415  0.36116420  0.83399534     1.34900
C242        C  0.42148307  0.25821085  0.89265372     0.83900
O243        O  0.47964617  0.38600689  0.89394059    -0.80200
O244        O  0.47799445  0.39387715  0.84844647    -0.90400
C245        C  0.44977286  0.34087732  0.95554849     0.83500
O246        O  0.41747493  0.37795030  0.85096739    -0.68600
O247        O  0.35720337  0.25497378  0.92022016    -0.87900
C248        C  0.41121871  0.38088642  0.87560076     0.84300
C249        C  0.99007063  0.40243609  0.87225211     1.05900
H250        H  0.38692580  0.31633488  0.90741240     0.37700
O251        O  0.40285333  0.31101786  0.90457851    -1.10600
O252        O  0.41898492  0.27347119  0.87281860    -0.67200
Ni253      Ni  0.39851915  0.29726236  0.86768813     1.26300
O254        O  0.41889137  0.36995067  0.89590807    -0.67500
O255        O  0.35881228  0.26157604  0.87415998    -0.79800
C256        C  0.39750781  0.30423806  0.81085695     0.83700
O257        O  0.39596184  0.28589609  0.82962316    -0.66900
Ni258      Ni  0.39821088  0.28418507  0.93397337     1.27400
Ni259      Ni  0.44152230  0.34806572  0.90016506     1.26100
H260        H  0.45340308  0.32908118  0.85979641     0.38200
O261        O  0.33831707  0.41973124  0.19385723    -0.81700
O262        O  0.36033121  0.45274976  0.06615940    -0.66400
O263        O  0.33419445  0.43999451  0.14092218    -1.13000
C264        C  0.26462810  0.33766066  0.10920937     1.05200
O265        O  0.31200882  0.42973013  0.05039047    -0.79600
O266        O  0.26346960  0.40218365  0.08472897    -0.67200
Ni267      Ni  0.36501710  0.45192512  0.16913079     1.34900
C268        C  0.25785352  0.40653536  0.10915997     0.83900
O269        O  0.37681168  0.48989550  0.10883186    -0.80200
O270        O  0.39593604  0.48741346  0.14945748    -0.90400
C271        C  0.34069771  0.44945739  0.04787551     0.83500
O272        O  0.37971071  0.42636264  0.15491477    -0.68600
O273        O  0.26806614  0.34996539  0.08548736    -0.87900
C274        C  0.39032656  0.42778970  0.13097838     0.84300
C275        C  0.39606506  0.00832561  0.12717852     1.05900
H276        H  0.33210895  0.39347065  0.09712091     0.37700
O277        O  0.32061410  0.40386607  0.09951465    -1.10600
O278        O  0.27274276  0.40511998  0.12991248    -0.67200
Ni279      Ni  0.30585731  0.39652842  0.13635599     1.26300
O280        O  0.38233795  0.43795762  0.11016193    -0.67500
O281        O  0.27853393  0.35320059  0.13056109    -0.79800
C282        C  0.30967755  0.39976179  0.19485989     0.83700
O283        O  0.29237214  0.39022015  0.17375676    -0.66900
Ni284      Ni  0.29143046  0.39064512  0.06970706     1.27400
Ni285      Ni  0.34879305  0.44685204  0.10380621     1.26100
H286        H  0.32293931  0.45079435  0.14391840     0.38200
O287        O  0.39866606  0.05639542  0.80286743    -0.81700
O288        O  0.39364204  0.02542695  0.93067132    -0.66400
O289        O  0.37823402  0.03761404  0.85594325    -1.13000
C290        C  0.41061457  0.13953137  0.88925295     1.05200
O291        O  0.36546523  0.04545296  0.94484220    -0.79600
O292        O  0.34649603  0.07650881  0.91247042    -0.67200
Ni293      Ni  0.39805990  0.02671123  0.82805717     1.34900
C294        C  0.33569976  0.07320494  0.88827562     0.83900
O295        O  0.37547190  0.49062684  0.89100552    -0.80200
O296        O  0.40241591  0.49675313  0.85327617    -0.90400
C297        C  0.37641796  0.02757863  0.94858278     0.83500
O298        O  0.43816863  0.05597594  0.84144484    -0.68600
O299        O  0.40388834  0.12729796  0.91321092    -0.87900
C300        C  0.44902331  0.05749147  0.86546985     0.84300
C301        C  0.38764144  0.48088413  0.87405071     1.05900
H302        H  0.42278377  0.08501430  0.89972729     0.37700
O303        O  0.40050864  0.07364780  0.89742875    -1.10600
O304        O  0.35019020  0.07237720  0.86708023    -0.67200
Ni305      Ni  0.39241753  0.08108329  0.86092492     1.26300
O306        O  0.43096902  0.04381704  0.88584765    -0.67500
O307        O  0.40776274  0.12418572  0.86746372    -0.79800
C308        C  0.39185669  0.07764704  0.80230307     0.83700
O309        O  0.38570319  0.08804541  0.82355650    -0.66900
Ni310      Ni  0.38535922  0.08579950  0.92767177     1.27400
Ni311      Ni  0.38733417  0.03122015  0.89280574     1.26100
H312        H  0.35605223  0.02616941  0.85297847     0.38200
C313        C  0.36141660  0.00423783  0.02385589    -0.02700
C314        C  0.35084090  0.46994403  0.02357348     0.07000
C315        C  0.34676684  0.45729099  0.99711928    -0.02800
C316        C  0.35341808  0.47633223  0.97383997    -0.02800
C317        C  0.36772602  0.00840172  0.97393727     0.07100
C318        C  0.37135048  0.02243115  0.99985071    -0.03000
Br319      Br  0.38944250  0.06665546  0.00270537    -0.01500
Br320      Br  0.36067618  0.02301789  0.05806352    -0.01600
Br321      Br  0.33680126  0.45702286  0.93897935    -0.01600
Br322      Br  0.33175899  0.41371664  0.99273492    -0.01500
C323        C  0.40070848  0.44633870  0.90173340    -0.02700
C324        C  0.38612579  0.45087947  0.87866640     0.07000
C325        C  0.37328254  0.42801205  0.85821939    -0.02800
C326        C  0.37780316  0.40243658  0.85931458    -0.02800
C327        C  0.39663717  0.40030762  0.88022005     0.07100
C328        C  0.40607185  0.42123618  0.90256592    -0.03000
Br329      Br  0.42878607  0.41798967  0.93354113    -0.01500
Br330      Br  0.42117114  0.97944003  0.92371140    -0.01600
Br331      Br  0.35793003  0.37037085  0.83197654    -0.01600
Br332      Br  0.35010060  0.43229834  0.82821661    -0.01500
C333        C  0.41034693  0.18389908  0.86433961    -0.02700
C334        C  0.42073665  0.17305902  0.88666466     0.07000
C335        C  0.43924608  0.19434484  0.90731695    -0.02800
C336        C  0.44294917  0.22422724  0.90784570    -0.02800
C337        C  0.42962720  0.23371972  0.88699560     0.07100
C338        C  0.41747967  0.21488564  0.86344051    -0.03000
Br339      Br  0.41202776  0.23118310  0.82916271    -0.01500
Br340      Br  0.38213075  0.15606786  0.83677163    -0.01600
Br341      Br  0.46774516  0.25289412  0.93634979    -0.01600
Br342      Br  0.45958092  0.18290290  0.93506722    -0.01500
C343        C  0.01537569  0.39599691  0.00470063    -0.02700
C344        C  0.01178947  0.37605476  0.02658563     0.07000
C345        C  0.48633602  0.34573459  0.02648494    -0.02800
C346        C  0.46507033  0.33502597  0.00425727    -0.02800
C347        C  0.46956035  0.35426277  0.98107439     0.07100
C348        C  0.99424744  0.38552528  0.98229517    -0.03000
Br349      Br  0.00021732  0.41509811  0.95400909    -0.01500
Br350      Br  0.05064566  0.43741534  0.00492817    -0.01600
Br351      Br  0.42851238  0.29455417  0.00727763    -0.01600
Br352      Br  0.48061857  0.31879083  0.05721867    -0.01500
C353        C  0.46689688  0.43242173  0.14467761    -0.02700
C354        C  0.46310087  0.40537416  0.13171776     0.07000
C355        C  0.43572739  0.38668777  0.11648805    -0.02800
C356        C  0.41224869  0.39468237  0.11468910    -0.02800
C357        C  0.41575592  0.42085568  0.12869236     0.07100
C358        C  0.44337399  0.43987208  0.14320797    -0.03000
Br359      Br  0.44962141  0.47701198  0.16110441    -0.01500
Br360      Br  0.00442477  0.46081731  0.16440927    -0.01600
Br361      Br  0.37506228  0.36934547  0.09379564    -0.01600
Br362      Br  0.42919811  0.34894211  0.09999552    -0.01500
C363        C  0.22879885  0.43426259  0.09799667    -0.02700
C364        C  0.23155006  0.41193417  0.11361397     0.07000
C365        C  0.20767396  0.39290777  0.13194864    -0.02800
C366        C  0.18024268  0.39435849  0.13302436    -0.02800
C367        C  0.17580703  0.41396439  0.11463142     0.07100
C368        C  0.20089918  0.43506554  0.09824854    -0.03000
Br369      Br  0.19758081  0.46590072  0.07694570    -0.01500
Br370      Br  0.26371478  0.46440353  0.07697645    -0.01600
Br371      Br  0.14838069  0.36721724  0.15863612    -0.01600
Br372      Br  0.21083541  0.36243862  0.15393590    -0.01500
C373        C  0.28893715  0.22104836  0.91167446    -0.02700
C374        C  0.31196908  0.22261606  0.89379386     0.07000
C375        C  0.30348204  0.19986668  0.87330697    -0.02800
C376        C  0.27283731  0.17516095  0.87151663    -0.02800
C377        C  0.25037830  0.17239659  0.89071618     0.07100
C378        C  0.25838159  0.19580195  0.91036221    -0.03000
Br379      Br  0.22721429  0.19335147  0.93528482    -0.01500
Br380      Br  0.29861110  0.25395831  0.93734417    -0.01600
Br381      Br  0.26319480  0.14373431  0.84412166    -0.01600
Br382      Br  0.33413003  0.20051950  0.84884638    -0.01500
C383        C  0.04468715  0.44231131  0.88619048    -0.02700
C384        C  0.01569474  0.43456589  0.87446244     0.07000
C385        C  0.01086474  0.45800163  0.86353370    -0.02800
C386        C  0.03531552  0.48841028  0.86238713    -0.02800
C387        C  0.06648477  0.99640873  0.86349532     0.07100
C388        C  0.06892546  0.47341375  0.88636632    -0.03000
Br389      Br  0.10846417  0.48446756  0.90272198    -0.01500
Br390      Br  0.05184455  0.41027220  0.90004680    -0.01600
Br391      Br  0.03055613  0.01718040  0.83144103    -0.01600
Br392      Br  0.47046658  0.44924456  0.85044307    -0.01500
C393        C  0.25063586  0.04906500  0.87405182    -0.02700
C394        C  0.24833071  0.07166371  0.88951608     0.07000
C395        C  0.27521968  0.09536424  0.90233950    -0.02800
C396        C  0.30392870  0.09705161  0.89916295    -0.02800
C397        C  0.30601199  0.07334587  0.88559318     0.07100
C398        C  0.27937925  0.04962154  0.87243634    -0.03000
Br399      Br  0.28211093  0.01770898  0.85295122    -0.01500
Br400      Br  0.21402669  0.01621541  0.85694523    -0.01600
Br401      Br  0.34092556  0.13341189  0.91233048    -0.01600
Br402      Br  0.27362260  0.12596509  0.92506293    -0.01500
C403        C  0.99783208  0.06863346  0.89234455    -0.02700
C404        C  0.48390127  0.07353071  0.86880026     0.07000
C405        C  0.00384659  0.09137225  0.84695922    -0.02800
C406        C  0.03514620  0.09860879  0.84657252    -0.02800
C407        C  0.04721189  0.08855173  0.86798964     0.07100
C408        C  0.02841407  0.07391756  0.89112832    -0.03000
Br409      Br  0.04220527  0.05669525  0.91976440    -0.01500
Br410      Br  0.47725749  0.05799390  0.92748016    -0.01600
Br411      Br  0.06148842  0.12205602  0.81624051    -0.01600
Br412      Br  0.48992077  0.10867672  0.81834927    -0.01500
C413        C  0.43796550  0.06122656  0.14138554    -0.02700
C414        C  0.42577812  0.03737151  0.12175318     0.07000
C415        C  0.44478181  0.03889052  0.09969057    -0.02800
C416        C  0.47652193  0.06161076  0.09928434    -0.02800
C417        C  0.99005854  0.08185920  0.12191625     0.07100
C418        C  0.46990451  0.08342543  0.14152591    -0.03000
Br419      Br  0.48530314  0.11663986  0.16802351    -0.01500
Br420      Br  0.41063753  0.06332651  0.16809947    -0.01600
Br421      Br  0.00045517  0.06384391  0.06742091    -0.01600
Br422      Br  0.43072912  0.51125439  0.06923527    -0.01500
C423        C  0.20594402  0.25629158  0.08736035    -0.02700
C424        C  0.18422635  0.24754345  0.10898207     0.07000
C425        C  0.19361914  0.26505462  0.13364010    -0.02800
C426        C  0.22289944  0.29206063  0.13549093    -0.02800
C427        C  0.24152280  0.30395301  0.11178808     0.07100
C428        C  0.23436783  0.28437361  0.08875815    -0.03000
Br429      Br  0.26436574  0.29511160  0.05968959    -0.01500
Br430      Br  0.19706435  0.23023556  0.05546788    -0.01600
Br431      Br  0.23696764  0.31160780  0.17099871    -0.01600
Br432      Br  0.16581811  0.25549008  0.16431907    -0.01500
C433        C  0.05549320  0.25627198  0.11815780    -0.02700
C434        C  0.08109819  0.25650335  0.10574115     0.07000
C435        C  0.10505199  0.28392195  0.09443450    -0.02800
C436        C  0.10301457  0.31076187  0.09442142    -0.02800
C437        C  0.07737298  0.31098903  0.10681592     0.07100
C438        C  0.05383378  0.28365265  0.11911252    -0.03000
Br439      Br  0.01856751  0.28307895  0.13571051    -0.01500
Br440      Br  0.02203935  0.21801080  0.13224731    -0.01600
Br441      Br  0.13645909  0.34694106  0.07711394    -0.01600
Br442      Br  0.14162916  0.28516681  0.07946742    -0.01500
C443        C  0.07870159  0.03424912  0.10330453    -0.02700
C444        C  0.09028699  0.05331342  0.12666957     0.07000
C445        C  0.10335169  0.04481053  0.14840880    -0.02800
C446        C  0.09963546  0.01503635  0.14912336    -0.02800
C447        C  0.07358783  0.49223152  0.12709023     0.07100
C448        C  0.07765945  0.00576095  0.10291227    -0.03000
Br449      Br  0.02506890  0.47013508  0.08433792    -0.01500
Br450      Br  0.05995948  0.04434037  0.07311138    -0.01600
Br451      Br  0.11707652  0.00412244  0.17988674    -0.01600
Br452      Br  0.12636944  0.07404570  0.17722773    -0.01500
C453        C  0.12186151  0.10899976  0.02309592    -0.02700
C454        C  0.10569255  0.12536846  0.02112545     0.07000
C455        C  0.09707942  0.13103334  0.99507152    -0.02800
C456        C  0.10580395  0.12170953  0.97108748    -0.02800
C457        C  0.12111146  0.10443716  0.97300060     0.07100
C458        C  0.12856412  0.09766405  0.99921359    -0.03000
Br459      Br  0.14842810  0.07311700  0.00245584    -0.01500
Br460      Br  0.13783826  0.10485581  0.05807188    -0.01600
Br461      Br  0.10025016  0.13638097  0.93607723    -0.01600
Br462      Br  0.07356834  0.15203571  0.99231273    -0.01500
C463        C  0.42609567  0.12567841  0.73973361    -0.02700
C464        C  0.40921275  0.10306229  0.71973956     0.07000
C465        C  0.38175098  0.07593150  0.72695208    -0.02800
C466        C  0.37271286  0.07026778  0.75458175    -0.02800
C467        C  0.39228125  0.09058095  0.77507364     0.07100
C468        C  0.41797332  0.11919354  0.76760494    -0.03000
Br469      Br  0.44446136  0.14738574  0.79562347    -0.01500
Br470      Br  0.46216771  0.16395405  0.72909908    -0.01600
Br471      Br  0.33519332  0.03314266  0.76493734    -0.01600
Br472      Br  0.35910122  0.04456357  0.69966328    -0.01500
C473        C  0.03560576  0.14609676  0.49806181    -0.02700
C474        C  0.02079949  0.13712184  0.47223689     0.07000
C475        C  0.48813519  0.12175926  0.47065776    -0.02800
C476        C  0.47040592  0.11250481  0.49487134    -0.02800
C477        C  0.48519764  0.12212160  0.52063725     0.07100
C478        C  0.01784913  0.14004896  0.52201752    -0.03000
Br479      Br  0.03829810  0.15982575  0.55584618    -0.01500
Br480      Br  0.08035807  0.16771334  0.50056575    -0.01600
Br481      Br  0.42588209  0.08680594  0.49273982    -0.01600
Br482      Br  0.46782049  0.11803317  0.43585659    -0.01500
C483        C  0.12334505  0.18918738  0.26094468    -0.02700
C484        C  0.10174136  0.19365217  0.27575001     0.07000
C485        C  0.08083577  0.20012455  0.26151009    -0.02800
C486        C  0.07921252  0.19845713  0.23261080    -0.02800
C487        C  0.09797736  0.18977201  0.21822291     0.07100
C488        C  0.12109645  0.18665796  0.23220219    -0.03000
Br489      Br  0.14720301  0.17528358  0.21224842    -0.01500
Br490      Br  0.15445387  0.18418973  0.28039270    -0.01600
Br491      Br  0.04956689  0.20528778  0.21269136    -0.01600
Br492      Br  0.05149581  0.20692517  0.28143333    -0.01500
C493        C  0.20085619  0.12690293  0.76339398    -0.02700
C494        C  0.19503092  0.10002276  0.77763424     0.07000
C495        C  0.19878050  0.07732804  0.76430325    -0.02800
C496        C  0.20278409  0.07883912  0.73564490    -0.02800
C497        C  0.20329176  0.10326950  0.72067288     0.07100
C498        C  0.20448004  0.12833411  0.73472133    -0.03000
Br499      Br  0.20788694  0.16299580  0.71434009    -0.01500
Br500      Br  0.20158344  0.16055660  0.78309858    -0.01600
Br501      Br  0.20291106  0.04528662  0.71653096    -0.01600
Br502      Br  0.19636884  0.04344435  0.78523399    -0.01500
C503        C  0.28671670  0.08509322  0.63706441    -0.02700
C504        C  0.26687177  0.07235112  0.61402907     0.07000
C505        C  0.27501575  0.05814979  0.59326468    -0.02800
C506        C  0.30465783  0.06108376  0.59328876    -0.02800
C507        C  0.32625066  0.07778964  0.61439654     0.07100
C508        C  0.31553862  0.08625658  0.63786672    -0.03000
Br509      Br  0.33913666  0.09921436  0.67164922    -0.01500
Br510      Br  0.27706715  0.10480895  0.66633523    -0.01600
Br511      Br  0.31482582  0.04067484  0.56501844    -0.01600
Br512      Br  0.24567245  0.03491094  0.56446770    -0.01500
C513        C  0.07641872  0.08691228  0.59674385    -0.02700
C514        C  0.09823165  0.09635845  0.61852755     0.07000
C515        C  0.09983232  0.11865600  0.63727548    -0.02800
C516        C  0.07572293  0.12549932  0.63825794    -0.02800
C517        C  0.05088854  0.11163525  0.61940907     0.07100
C518        C  0.05235128  0.09391909  0.59755694    -0.03000
Br519      Br  0.51933963  0.07540663  0.57062266    -0.01500
Br520      Br  0.07857589  0.06426712  0.56572545    -0.01600
Br521      Br  0.07610025  0.15290244  0.66620458    -0.01600
Br522      Br  0.13558006  0.14080613  0.66106530    -0.01500
C523        C  0.14887010  0.50901665  0.47853865    -0.02700
C524        C  0.12737790  0.47725425  0.48181927     0.07000
C525        C  0.11788014  0.46533920  0.50855499    -0.02800
C526        C  0.12657023  0.98761363  0.52830762    -0.02800
C527        C  0.14574374  0.01988664  0.52516295     0.07100
C528        C  0.15517933  0.03227904  0.49858590    -0.03000
Br529      Br  0.18030648  0.07642302  0.49360925    -0.01500
Br530      Br  0.16871357  0.52461969  0.44362237    -0.01600
Br531      Br  0.11863973  0.96917234  0.56431811    -0.01600
Br532      Br  0.08868808  0.42201636  0.51367819    -0.01500
C533        C  0.12730125  0.06713337  0.36358999    -0.02700
C534        C  0.11133749  0.04079478  0.38030070     0.07000
C535        C  0.08833325  0.03871055  0.39830382    -0.02800
C536        C  0.07804210  0.06024990  0.39654062    -0.02800
C537        C  0.09176868  0.08512111  0.37764914     0.07100
C538        C  0.11809779  0.08960647  0.36271464    -0.03000
Br539      Br  0.14197792  0.12656850  0.34116070    -0.01500
Br540      Br  0.16151940  0.07187923  0.34164880    -0.01600
Br541      Br  0.04269606  0.05274159  0.41803569    -0.01600
Br542      Br  0.08019607  0.51397090  0.43517631    -0.01500
C543        C  0.08379866  0.30560928  0.36219751    -0.02700
C544        C  0.07451677  0.31495287  0.38607629     0.07000
C545        C  0.05828878  0.29257914  0.40665681    -0.02800
C546        C  0.05503941  0.26295825  0.40496800    -0.02800
C547        C  0.06949489  0.25584373  0.38362816     0.07100
C548        C  0.08246484  0.27677660  0.36145680    -0.03000
Br549      Br  0.10165428  0.26803985  0.33113264    -0.01500
Br550      Br  0.09951232  0.33202997  0.33041088    -0.01600
Br551      Br  0.03034161  0.23173971  0.43179600    -0.01600
Br552      Br  0.03960311  0.30194053  0.43697018    -0.01500
C553        C  0.12254625  0.42021936  0.23417036    -0.02700
C554        C  0.09584335  0.39522438  0.22256595     0.07000
C555        C  0.07344093  0.37230690  0.23986239    -0.02800
C556        C  0.07598322  0.37628121  0.26863558    -0.02800
C557        C  0.10095667  0.40315847  0.28001065     0.07100
C558        C  0.12516686  0.42410723  0.26287134    -0.03000
Br559      Br  0.16061497  0.45962891  0.27874361    -0.01500
Br560      Br  0.15392280  0.45073218  0.21044112    -0.01600
Br561      Br  0.04363838  0.34680631  0.29222385    -0.01600
Br562      Br  0.03727783  0.33764169  0.22390339    -0.01500
C563        C  0.37228042  0.29399613  0.73666347    -0.02700
C564        C  0.40017972  0.30084749  0.72356671     0.07000
C565        C  0.42478989  0.30242731  0.73925896    -0.02800
C566        C  0.42283148  0.30067171  0.76817855    -0.02800
C567        C  0.39584959  0.29647517  0.78141432     0.07100
C568        C  0.37012026  0.29184199  0.76553912    -0.03000
Br569      Br  0.33309244  0.28563491  0.78360753    -0.01500
Br570      Br  0.33837963  0.29127797  0.71505052    -0.01600
Br571      Br  0.45879497  0.30870761  0.78973684    -0.01600
Br572      Br  0.46234319  0.31030777  0.72107504    -0.01500
C573        C  0.32807475  0.21620135  0.59270960    -0.02700
C574        C  0.32860058  0.24143537  0.60628991     0.07000
C575        C  0.30188111  0.23653714  0.62053039    -0.02800
C576        C  0.27492782  0.20683369  0.62093308    -0.02800
C577        C  0.27437416  0.18206082  0.60664813     0.07100
C578        C  0.30121168  0.18693028  0.59279002    -0.03000
Br579      Br  0.30194685  0.15297655  0.57464933    -0.01500
Br580      Br  0.36448427  0.22057990  0.57455348    -0.01600
Br581      Br  0.23836856  0.20035889  0.64002046    -0.01600
Br582      Br  0.30149418  0.27083975  0.63785716    -0.01500
C583        C  0.02696207  0.42138568  0.65701221    -0.02700
C584        C  0.50696657  0.41371600  0.63381173     0.07000
C585        C  0.02023685  0.42840044  0.60846455    -0.02800
C586        C  0.04955084  0.45545792  0.60801595    -0.02800
C587        C  0.06751487  0.46613904  0.63236116     0.07100
C588        C  0.05707067  0.44745437  0.65617416    -0.03000
Br589      Br  0.08411840  0.45746334  0.68788475    -0.01500
Br590      Br  0.01451351  0.39632179  0.68996994    -0.01600
Br591      Br  0.05922513  0.98691262  0.57589996    -0.01600
Br592      Br  0.49922683  0.41154595  0.57384497    -0.01500
C593        C  0.42187991  0.20133152  0.63225390    -0.02700
C594        C  0.43718271  0.19522826  0.61093841     0.07000
C595        C  0.45491109  0.21897000  0.59189450    -0.02800
C596        C  0.45468794  0.24710872  0.59250358    -0.02800
C597        C  0.43603883  0.25149852  0.61172483     0.07100
C598        C  0.42037568  0.22865460  0.63217659    -0.03000
Br599      Br  0.39345329  0.23216317  0.65873939    -0.01500
Br600      Br  0.40127183  0.17193139  0.66137788    -0.01600
Br601      Br  0.48057206  0.27980010  0.56730294    -0.01600
Br602      Br  0.48068571  0.21347732  0.56572368    -0.01500
C603        C  0.45206130  0.47512642  0.63436755    -0.02700
C604        C  0.42160025  0.45072975  0.62912122     0.07000
C605        C  0.39780275  0.45780184  0.62424757    -0.02800
C606        C  0.40466387  0.48894461  0.62482294    -0.02800
C607        C  0.43840439  0.01402469  0.62816137     0.07100
C608        C  0.45822348  0.50546102  0.63687354    -0.03000
Br609      Br  0.50094805  0.03765396  0.64958124    -0.01500
Br610      Br  0.48656594  0.46803399  0.63756706    -0.01600
Br611      Br  0.37232670  0.49885854  0.61919087    -0.01600
Br612      Br  0.35568904  0.42503247  0.61879670    -0.01500
C613        C  0.30456882  0.36492525  0.26371912    -0.02700
C614        C  0.29917600  0.38496646  0.28003020     0.07000
C615        C  0.28859069  0.40341685  0.26756014    -0.02800
C616        C  0.28783297  0.40519157  0.23867596    -0.02800
C617        C  0.29717394  0.38811741  0.22239968     0.07100
C618        C  0.30361627  0.36654686  0.23488798    -0.03000
Br619      Br  0.31539333  0.34250277  0.21240416    -0.01500
Br620      Br  0.31706793  0.33803588  0.28095468    -0.01600
Br621      Br  0.27868741  0.43448001  0.22139077    -0.01600
Br622      Br  0.27949266  0.42944228  0.28996876    -0.01500
C623        C  0.36859722  0.37832150  0.52895762    -0.02700
C624        C  0.39603283  0.37689628  0.52777930     0.07000
C625        C  0.41427087  0.38687272  0.50398281    -0.02800
C626        C  0.40440931  0.39686149  0.48080263    -0.02800
C627        C  0.37487849  0.39499291  0.48062626     0.07100
C628        C  0.35801643  0.38735594  0.50565977    -0.03000
Br629      Br  0.32137113  0.39102434  0.50936365    -0.01500
Br630      Br  0.34521859  0.36719472  0.56270079    -0.01600
Br631      Br  0.43272312  0.41363017  0.45033518    -0.01600
Br632      Br  0.45251708  0.38585763  0.50309325    -0.01500
C633        C  0.42135598  0.01589306  0.33983787    -0.02700
C634        C  0.41389140  0.49811660  0.37151738     0.07000
C635        C  0.42618382  0.01151084  0.38915487    -0.02800
C636        C  0.45341015  0.04067571  0.38956283    -0.02800
C637        C  0.46531489  0.05765093  0.36490913     0.07100
C638        C  0.44744985  0.04604579  0.34053020    -0.03000
Br639      Br  0.45815443  0.07158281  0.30787617    -0.01500
Br640      Br  0.39799813  0.00161755  0.30586197    -0.01600
Br641      Br  0.97521959  0.05473528  0.42406473    -0.01600
Br642      Br  0.41755135  0.48960706  0.43125372    -0.01500
C643        C  0.21290721  0.31602379  0.40654701    -0.02700
C644        C  0.23966087  0.31627847  0.39653760     0.07000
C645        C  0.23638011  0.28972751  0.38333989    -0.02800
C646        C  0.20664472  0.26312708  0.38048743    -0.02800
C647        C  0.18025552  0.26306203  0.39089933     0.07100
C648        C  0.18352949  0.28981360  0.40338669    -0.03000
Br649      Br  0.14734587  0.29129218  0.41534640    -0.01500
Br650      Br  0.21532898  0.35167423  0.42418649    -0.01600
Br651      Br  0.20200328  0.22663899  0.36296254    -0.00400
Br652      Br  0.27270218  0.28911280  0.37089505    -0.01500
C653        C  0.47414621  0.44525223  0.36840646    -0.02700
C654        C  0.45025923  0.41578180  0.37712352     0.07000
C655        C  0.45836130  0.39427406  0.38743586    -0.02800
C656        C  0.48980372  0.40172756  0.38763053    -0.02800
C657        C  0.01307321  0.43059292  0.37765431     0.07100
C658        C  0.50513388  0.45247817  0.36875667    -0.03000
Br659      Br  0.03670567  0.49283417  0.35641560    -0.01500
Br660      Br  0.46563187  0.47686473  0.35551864    -0.01600
Br661      Br  0.50090670  0.37199443  0.40017662    -0.01600
Br662      Br  0.42657580  0.35396387  0.39946225    -0.01500
C663        C  0.22339944  0.40755972  0.36735870    -0.02700
C664        C  0.24596442  0.42235651  0.38837052     0.07000
C665        C  0.24227868  0.44192390  0.40695666    -0.02800
C666        C  0.21451841  0.44300488  0.40704016    -0.02800
C667        C  0.19091866  0.42601316  0.38752353     0.07100
C668        C  0.19742589  0.41157080  0.36577168    -0.03000
Br669      Br  0.17179074  0.39759275  0.33319922    -0.01500
Br670      Br  0.22450189  0.37782385  0.34279051    -0.01600
Br671      Br  0.20951608  0.46909192  0.43318098    -0.01600
Br672      Br  0.27509025  0.46757216  0.43238528    -0.01500
O673        O  0.34227420  0.90289794  0.30437521    -0.81700
O674        O  0.38325636  0.91517907  0.43043617    -0.66400
O675        O  0.34774219  0.89024887  0.35877400    -1.13000
C676        C  0.27431503  0.91574993  0.39357179     1.05200
O677        O  0.33753442  0.88635050  0.45042303    -0.79600
O678        O  0.28533038  0.85627494  0.41923842    -0.67200
Ni679      Ni  0.37544488  0.91004561  0.32859665     1.34900
C680        C  0.27343478  0.84622973  0.39572268     0.83900
O681        O  0.39949171  0.89434534  0.38741628    -0.80200
O682        O  0.41297325  0.91817802  0.34729463    -0.90400
C683        C  0.36705835  0.89964112  0.45075726     0.83500
O684        O  0.38123381  0.94925139  0.33960940    -0.68600
O685        O  0.28042837  0.90826523  0.41697534    -0.87900
C686        C  0.39376361  0.96238324  0.36223725     0.84300
C687        C  0.41952509  0.90810660  0.36877663     1.05900
H688        H  0.34480529  0.93584196  0.40178337     0.37700
O689        O  0.33542825  0.91372912  0.40017286    -1.10600
O690        O  0.28470479  0.86159094  0.37366130    -0.67200
Ni691      Ni  0.31735248  0.90309652  0.36456742     1.26300
O692        O  0.39379700  0.94656868  0.38302195    -0.67500
O693        O  0.28905849  0.91741758  0.37174162    -0.79800
C694        C  0.31394002  0.89532636  0.30573487     0.83700
O695        O  0.30027069  0.89319998  0.32817987    -0.66900
Ni696      Ni  0.31008757  0.89768438  0.43187457     1.27400
Ni697      Ni  0.36700324  0.90367562  0.39414052     1.26100
H698        H  0.33790175  0.86806517  0.35726617     0.38200
O699        O  0.41911822  0.84486790  0.69518480    -0.81700
O700        O  0.42359354  0.88156255  0.56825127    -0.66400
O701        O  0.40053339  0.84841873  0.64118855    -1.13000
C702        C  0.42783634  0.77583190  0.60737440     1.05200
O703        O  0.39495249  0.83532838  0.55009203    -0.79600
O704        O  0.36769214  0.78228075  0.58008400    -0.67200
Ni705      Ni  0.42225645  0.87642047  0.67088038     1.34900
C706        C  0.35625216  0.77227638  0.60368757     0.83900
O707        O  0.40361245  0.89897272  0.61167868    -0.80200
O708        O  0.42678642  0.91234653  0.65235952    -0.90400
C709        C  0.40883433  0.86465962  0.54793056     0.83500
O710        O  0.46173777  0.88399984  0.65789183    -0.68600
O711        O  0.42223610  0.78244817  0.58333621    -0.87900
C712        C  0.47335447  0.89566247  0.63465106     0.84300
C713        C  0.41687631  0.91877702  0.63068315     1.05900
H714        H  0.44581458  0.84479813  0.59898538     0.37700
O715        O  0.42351342  0.83523423  0.60002221    -1.10600
O716        O  0.37031077  0.78544867  0.62596606    -0.67200
Ni717      Ni  0.41232997  0.81753420  0.63561749     1.26300
O718        O  0.45607827  0.89426469  0.61459678    -0.67500
O719        O  0.42653113  0.78920385  0.62906630    -0.79800
C720        C  0.40786186  0.81593051  0.69437469     0.83700
O721        O  0.40141521  0.80091437  0.67208780    -0.66900
Ni722      Ni  0.40900655  0.80993749  0.56826608     1.27400
Ni723      Ni  0.41293677  0.86653024  0.60517250     1.26100
H724        H  0.37834949  0.83907182  0.64338210     0.38200
O725        O  0.09649534  0.93428014  0.30670324    -0.81700
O726        O  0.10067602  0.96296395  0.43509437    -0.66400
O727        O  0.11734520  0.95219576  0.36075587    -1.13000
C728        C  0.08656666  0.84982745  0.39106872     1.05200
O729        O  0.12539588  0.94015867  0.45250315    -0.79600
O730        O  0.15036988  0.91663205  0.41738570    -0.67200
Ni731      Ni  0.09994686  0.96515789  0.33180942     1.34900
C732        C  0.16071017  0.92019366  0.39306729     0.83900
O733        O  0.12195583  0.00093608  0.39308213    -0.80200
O734        O  0.10260132  0.99955829  0.35161116    -0.90400
C735        C  0.11631302  0.95981500  0.45418551     0.83500
O736        O  0.05843521  0.93895723  0.34412473    -0.68600
O737        O  0.09555076  0.86196876  0.41485759    -0.87900
C738        C  0.04808890  0.93837164  0.36808704     0.84300
C739        C  0.11165725  0.51186858  0.37907118     1.05900
H740        H  0.07167925  0.90404567  0.40398045     0.37700
O741        O  0.09393357  0.91506687  0.40174043    -1.10600
O742        O  0.14406527  0.91725923  0.37203421    -0.67200
Ni743      Ni  0.10211627  0.90851267  0.36492932     1.26300
O744        O  0.06536189  0.94748155  0.38956272    -0.67500
O745        O  0.08610186  0.86511006  0.37024246    -0.79800
C746        C  0.10353875  0.91322533  0.30608943     0.83700
O747        O  0.10954659  0.90256931  0.32748200    -0.66900
Ni748      Ni  0.10983284  0.90196127  0.43169925     1.27400
Ni749      Ni  0.10801206  0.95798679  0.39761303     1.26100
H750        H  0.13961734  0.96317983  0.35856507     0.38200
O751        O  0.16224891  0.58958455  0.68765283    -0.81700
O752        O  0.13809954  0.53923489  0.56777595    -0.66400
O753        O  0.16128067  0.55592369  0.64317812    -1.13000
C754        C  0.24287359  0.65168360  0.60641067     1.05200
O755        O  0.18693475  0.55649024  0.55598147    -0.79600
O756        O  0.23737200  0.58968621  0.58798253    -0.67200
Ni757      Ni  0.13222425  0.55188193  0.67030953     1.34900
C758        C  0.23954304  0.58022362  0.61165328     0.83900
O759        O  0.11482781  0.00891355  0.61210258    -0.80200
O760        O  0.10134845  0.01568756  0.65425308    -0.90400
C761        C  0.15797958  0.53887501  0.55177356     0.83500
O762        O  0.11724038  0.57468890  0.65112654    -0.68600
O763        O  0.23155035  0.64025063  0.58281950    -0.87900
C764        C  0.11147360  0.57607108  0.62595056     0.84300
C765        C  0.09646963  0.99962290  0.63255097     1.05900
H766        H  0.17205091  0.60236160  0.59764375     0.37700
O767        O  0.18084270  0.58918256  0.60033289    -1.10600
O768        O  0.22176480  0.57749314  0.63139674    -0.67200
Ni769      Ni  0.19662057  0.59621105  0.63696227     1.26300
O770        O  0.11941344  0.56373197  0.60718004    -0.67500
O771        O  0.23223417  0.63683309  0.62906768    -0.79800
C772        C  0.18963725  0.59607179  0.69376814     0.83700
O773        O  0.20897875  0.60029122  0.67498521    -0.66900
Ni774      Ni  0.20815957  0.59813940  0.57050634     1.27400
Ni775      Ni  0.14784397  0.54773408  0.60602718     1.26100
H776        H  0.16843793  0.54187146  0.64834239     0.38200
O777        O  0.08677361  0.65505970  0.31226235    -0.81700
O778        O  0.04248415  0.63055125  0.43463463    -0.66400
O779        O  0.05470360  0.65300734  0.35913529    -1.13000
C780        C  0.15174284  0.73513834  0.39326039     1.05200
O781        O  0.05889255  0.67907795  0.44627613    -0.79600
O782        O  0.09064745  0.72985645  0.41439391    -0.67200
Ni783      Ni  0.05091690  0.62417366  0.33195090     1.34900
C784        C  0.07989086  0.73184465  0.39123867     0.83900
O785        O  0.00747436  0.60633813  0.38978403    -0.80200
O786        O  0.01381374  0.59082801  0.34845699    -0.90400
C787        C  0.04248073  0.65024836  0.45093516     0.83500
O788        O  0.07650770  0.61123043  0.35020390    -0.68600
O789        O  0.14160572  0.72376638  0.41707166    -0.87900
C790        C  0.07815907  0.60492048  0.37525850     0.84300
C791        C  0.49781453  0.58706440  0.37005329     1.05900
H792        H  0.10384952  0.66513390  0.40262104     0.37700
O793        O  0.09005599  0.67336746  0.40082911    -1.10600
O794        O  0.07566427  0.71352358  0.37148715    -0.67200
Ni795      Ni  0.09484092  0.68887162  0.36445978     1.26300
O796        O  0.06537681  0.61212935  0.39419496    -0.67500
O797        O  0.13559297  0.72471718  0.37116772    -0.79800
C798        C  0.09364505  0.68280758  0.30750708     0.83700
O799        O  0.09695583  0.70102016  0.32692565    -0.66900
Ni800      Ni  0.10000010  0.70063339  0.43069840     1.27400
Ni801      Ni  0.04862104  0.63985690  0.39634281     1.26100
H802        H  0.03985585  0.65941968  0.35458124     0.38200
O803        O  0.43996021  0.59367132  0.69431957    -0.81700
O804        O  0.46670542  0.59688299  0.56595819    -0.66400
O805        O  0.46005066  0.61583542  0.64052294    -1.13000
C806        C  0.35804682  0.58922161  0.61148065     1.05200
O807        O  0.44773444  0.62574932  0.55043929    -0.79600
O808        O  0.42378089  0.65087726  0.58440747    -0.67200
Ni809      Ni  0.47171221  0.59757083  0.66955006     1.34900
C810        C  0.43019613  0.66213759  0.60842066     0.83900
O811        O  0.50604026  0.61681038  0.60706510    -0.80200
O812        O  0.50632398  0.60035182  0.64953512    -0.90400
C813        C  0.46517771  0.61413419  0.54764004     0.83500
O814        O  0.44521574  0.55627581  0.65729084    -0.68600
O815        O  0.36926949  0.59635117  0.58725024    -0.87900
C816        C  0.44325158  0.54552662  0.63330810     0.84300
C817        C  0.01838923  0.60913953  0.62588858     1.05900
H818        H  0.40900957  0.57156392  0.59867562     0.37700
O819        O  0.42136463  0.59373355  0.60038098    -1.10600
O820        O  0.42907899  0.64631913  0.62938524    -0.67200
Ni821      Ni  0.41708591  0.60385892  0.63700512     1.26300
O822        O  0.45144961  0.56229904  0.61162132    -0.67500
O823        O  0.37417344  0.59073030  0.63240153    -0.79800
C824        C  0.42095867  0.60355097  0.69518793     0.83700
O825        O  0.41313396  0.61305678  0.67418213    -0.66900
Ni826      Ni  0.40915676  0.61039363  0.57046968     1.27400
Ni827      Ni  0.46370062  0.60517297  0.60355828     1.26100
H828        H  0.47255196  0.63797592  0.64242262     0.38200
O829        O  0.06462170  0.65121025  0.18888368    -0.81700
O830        O  0.07908285  0.62432567  0.06541477    -0.66400
O831        O  0.09342753  0.64889025  0.14064453    -1.13000
C832        C  0.08119585  0.73208494  0.10662365     1.05200
O833        O  0.11326175  0.67185220  0.05221486    -0.79600
O834        O  0.13712823  0.72341757  0.08459220    -0.67200
Ni835      Ni  0.07020639  0.62082196  0.16945133     1.34900
C836        C  0.14879686  0.72633468  0.10845253     0.83900
O837        O  0.08969922  0.60022446  0.10996594    -0.80200
O838        O  0.07400366  0.58752535  0.15353879    -0.90400
C839        C  0.09911222  0.64272155  0.04832684     0.83500
O840        O  0.03062261  0.60619094  0.15285164    -0.68600
O841        O  0.08253737  0.72267516  0.08252715    -0.87900
C842        C  0.02106908  0.60117102  0.12815884     0.84300
C843        C  0.08245374  0.58218146  0.13050224     1.05900
H844        H  0.05649922  0.66194948  0.09673700     0.37700
O845        O  0.07843609  0.66939556  0.09881232    -1.10600
O846        O  0.13321443  0.70953462  0.12862086    -0.67200
Ni847      Ni  0.08915944  0.68456643  0.13530571     1.26300
O848        O  0.03970522  0.60905362  0.10792600    -0.67500
O849        O  0.08414016  0.71991006  0.12878542    -0.79800
C850        C  0.08483561  0.67939653  0.19263891     0.83700
O851        O  0.09925721  0.69703769  0.17269016    -0.66900
Ni852      Ni  0.09730044  0.69640832  0.06865970     1.27400
Ni853      Ni  0.08435364  0.63487167  0.10361886     1.26100
H854        H  0.11500055  0.65550871  0.14412281     0.38200
O855        O  0.14448079  0.57107205  0.80956701    -0.81700
O856        O  0.11803876  0.58293891  0.93504503    -0.66400
O857        O  0.14488436  0.59781587  0.86049471    -1.13000
C858        C  0.22173841  0.57534725  0.89521631     1.05200
O859        O  0.16618608  0.61232321  0.94999232    -0.79600
O860        O  0.21752203  0.63264002  0.91806741    -0.67200
Ni861      Ni  0.11602324  0.57775167  0.83127225     1.34900
C862        C  0.22297074  0.64414147  0.89405010     0.83900
O863        O  0.09868584  0.60036254  0.89145321    -0.80200
O864        O  0.08412506  0.58287804  0.84873002    -0.90400
C865        C  0.13706416  0.60089052  0.95290343     0.83500
O866        O  0.09941549  0.53746793  0.84635769    -0.68600
O867        O  0.21180757  0.57613392  0.91917670    -0.87900
C868        C  0.08981526  0.52835800  0.87058472     0.84300
C869        C  0.07955302  0.59231438  0.87156008     1.05900
H870        H  0.15050687  0.55548307  0.90384066     0.37700
O871        O  0.16065320  0.57766036  0.90219374    -1.10600
O872        O  0.20621736  0.63042539  0.87328308    -0.67200
Ni873      Ni  0.17705183  0.58782458  0.86599805     1.26300
O874        O  0.09865878  0.54619167  0.89139025    -0.67500
O875        O  0.20956433  0.57831678  0.87299740    -0.79800
C876        C  0.17393122  0.58621390  0.80798763     0.83700
O877        O  0.19116234  0.59759407  0.82896343    -0.66900
Ni878      Ni  0.18779881  0.59353114  0.93305537     1.27400
Ni879      Ni  0.12976045  0.58913311  0.89734995     1.26100
H880        H  0.15412803  0.61976429  0.85747691     0.38200
O881        O  0.06411936  0.90832561  0.19507038    -0.81700
O882        O  0.02724308  0.90609047  0.06838251    -0.66400
O883        O  0.04073658  0.88842543  0.14220543    -1.13000
C884        C  0.14021560  0.91392703  0.10640254     1.05200
O885        O  0.04632896  0.87815953  0.05107200    -0.79600
O886        O  0.07572374  0.85514444  0.08128376    -0.67200
Ni887      Ni  0.03587257  0.91195665  0.17067673     1.34900
C888        C  0.07291631  0.84359479  0.10507038     0.83900
O889        O  0.99228857  0.89034817  0.11321419    -0.80200
O890        O  0.00501729  0.91748278  0.15170932    -0.90400
C891        C  0.02821231  0.88914333  0.04955588     0.83500
O892        O  0.06861368  0.94938586  0.15554672    -0.68600
O893        O  0.12838149  0.91045986  0.08233390    -0.87900
C894        C  0.06755591  0.95992946  0.13198896     0.84300
C895        C  0.48733965  0.90591434  0.13097745     1.05900
H896        H  0.08838438  0.93115664  0.09831821     0.37700
O897        O  0.07566706  0.90901354  0.09985637    -1.10600
O898        O  0.07191974  0.85694607  0.12705753    -0.67200
Ni899      Ni  0.08325325  0.89920449  0.13568976     1.26300
O900        O  0.04989183  0.94208724  0.11307613    -0.67500
O901        O  0.12548701  0.91169065  0.12834628    -0.79800
C902        C  0.08232656  0.89756769  0.19453964     0.83700
O903        O  0.09023073  0.89004085  0.17248552    -0.66900
Ni904      Ni  0.08677135  0.89504610  0.06816744     1.27400
Ni905      Ni  0.03370398  0.89865731  0.10579798     1.26100
H906        H  0.02774554  0.86656875  0.14563210     0.38200
O907        O  0.40129804  0.82877233  0.81431145    -0.81700
O908        O  0.44808537  0.86057359  0.93389676    -0.66400
O909        O  0.43846189  0.83439472  0.85909827    -1.13000
C910        C  0.34541800  0.75006394  0.89422399     1.05200
O911        O  0.43921002  0.81473263  0.94734745    -0.79600
O912        O  0.41371197  0.76224753  0.91607093    -0.67200
Ni913      Ni  0.43982301  0.86006622  0.82955345     1.34900
C914        C  0.42207934  0.75952062  0.89213339     0.83900
O915        O  0.48197327  0.88678195  0.88826199    -0.80200
O916        O  0.47830398  0.89325149  0.84272293    -0.90400
C917        C  0.45064748  0.84352872  0.95195485     0.83500
O918        O  0.41776842  0.87744943  0.84642413    -0.68600
O919        O  0.35720339  0.75852897  0.91829587    -0.87900
C920        C  0.41283546  0.88149261  0.87115962     0.84300
C921        C  0.99153260  0.90253622  0.86605260     1.05900
H922        H  0.38872666  0.81883522  0.90327249     0.37700
O923        O  0.40432863  0.81294846  0.90115380    -1.10600
O924        O  0.42051845  0.77452568  0.87160660    -0.67200
Ni925      Ni  0.39960996  0.79758611  0.86483422     1.26300
O926        O  0.42159760  0.87161993  0.89139961    -0.67500
O927        O  0.36010277  0.76199340  0.87196835    -0.79800
C928        C  0.39713498  0.80246524  0.80826318     0.83700
O929        O  0.39663620  0.78479097  0.82721686    -0.66900
Ni930      Ni  0.39850583  0.78710624  0.93165060     1.27400
Ni931      Ni  0.44350192  0.84933474  0.89580898     1.26100
H932        H  0.45429231  0.82905458  0.85574122     0.38200
O933        O  0.33479376  0.92697531  0.19400652    -0.81700
O934        O  0.35869506  0.95723197  0.06645195    -0.66400
O935        O  0.33193234  0.94723431  0.14083956    -1.13000
C936        C  0.26178637  0.84327317  0.11111318     1.05200
O937        O  0.31051513  0.93335822  0.05023182    -0.79600
O938        O  0.26042666  0.90464750  0.08321731    -0.67200
Ni939      Ni  0.36206919  0.95971680  0.16982029     1.34900
C940        C  0.25502692  0.91178282  0.10668086     0.83900
O941        O  0.37581928  0.99598959  0.10829765    -0.80200
O942        O  0.39327664  0.99539677  0.15037776    -0.90400
C943        C  0.33925361  0.95297748  0.04763134     0.83500
O944        O  0.37898282  0.93528369  0.15706001    -0.68600
O945        O  0.26743674  0.85420790  0.08671230    -0.87900
C946        C  0.38850757  0.93484705  0.13299087     0.84300
C947        C  0.39739990  0.50168830  0.12738344     1.05900
H948        H  0.33005831  0.89882709  0.09968880     0.37700
O949        O  0.31833783  0.90960606  0.10072152    -1.10600
O950        O  0.27063913  0.91353601  0.12810666    -0.67200
Ni951      Ni  0.30254149  0.90380432  0.13700713     1.26300
O952        O  0.37980688  0.94352715  0.11166674    -0.67500
O953        O  0.27393733  0.86024137  0.13223211    -0.79800
C954        C  0.30584022  0.90789534  0.19501168     0.83700
O955        O  0.28839538  0.89929895  0.17398648    -0.66900
Ni956      Ni  0.29027996  0.89461473  0.07017969     1.27400
Ni957      Ni  0.34693235  0.95279403  0.10403951     1.26100
H958        H  0.32105457  0.95852492  0.14297681     0.38200
O959        O  0.40073536  0.55777955  0.80647563    -0.81700
O960        O  0.39504460  0.52714265  0.93430715    -0.66400
O961        O  0.38036763  0.53968707  0.85966524    -1.13000
C962        C  0.41336944  0.64180544  0.89219233     1.05200
O963        O  0.36830835  0.54840559  0.94938157    -0.79600
O964        O  0.34897155  0.57858633  0.91621383    -0.67200
Ni965      Ni  0.40099368  0.52898807  0.83237378     1.34900
C966        C  0.33858533  0.57620576  0.89195867     0.83900
O967        O  0.37409048  0.98870727  0.88731816    -0.80200
O968        O  0.39876456  0.99378799  0.84828110    -0.90400
C969        C  0.37794770  0.52931978  0.95227258     0.83500
O970        O  0.44070645  0.55907818  0.84614662    -0.68600
O971        O  0.40607473  0.62968454  0.91618130    -0.87900
C972        C  0.45109469  0.55978411  0.87025729     0.84300
C973        C  0.38530937  0.97859377  0.86974356     1.05900
H974        H  0.42506323  0.58691249  0.90355070     0.37700
O975        O  0.40279897  0.57576483  0.90117534    -1.10600
O976        O  0.35319623  0.57563640  0.87071812    -0.67200
Ni977      Ni  0.39505667  0.58321557  0.86448699     1.26300
O978        O  0.43254762  0.54531002  0.89009274    -0.67500
O979        O  0.41115500  0.62636166  0.87069236    -0.79800
C980        C  0.39385144  0.57898903  0.80568396     0.83700
O981        O  0.38837471  0.58998333  0.82694754    -0.66900
Ni982      Ni  0.38795348  0.58842505  0.93133544     1.27400
Ni983      Ni  0.38904271  0.53318858  0.89658032     1.26100
H984        H  0.35823684  0.52840119  0.85637972     0.38200
C985        C  0.36195545  0.50181899  0.02648731    -0.02700
C986        C  0.34977213  0.97214773  0.02246411     0.07000
C987        C  0.34599109  0.95807267  0.99668483    -0.02800
C988        C  0.35358324  0.97590353  0.97248676    -0.02800
C989        C  0.36815842  0.50876327  0.97675810     0.07100
C990        C  0.37212685  0.52137210  0.00334459    -0.03000
Br991      Br  0.39114472  0.56542242  0.00835285    -0.01500
Br992      Br  0.35980894  0.51837022  0.06148826    -0.01600
Br993      Br  0.33979743  0.95486233  0.93788565    -0.01600
Br994      Br  0.33001514  0.91412874  0.99450535    -0.01500
C995        C  0.40303599  0.94741887  0.89643283    -0.02700
C996        C  0.38501637  0.94929977  0.87487016     0.07000
C997        C  0.37036135  0.92476237  0.85608992    -0.02800
C998        C  0.37648663  0.90020699  0.85701412    -0.02800
C999        C  0.39828878  0.90070027  0.87613737     0.07100
C1000       C  0.40980970  0.92332131  0.89712860    -0.03000
Br1001     Br  0.43744717  0.92396666  0.92560618    -0.01500
Br1002     Br  0.41632716  0.47607096  0.93110767    -0.01600
Br1003     Br  0.35483685  0.86589201  0.83203903    -0.01600
Br1004     Br  0.34231025  0.92520024  0.82879092    -0.01500
C1005       C  0.41478248  0.68610495  0.86547924    -0.02700
C1006       C  0.42339966  0.67528240  0.88908424     0.07000
C1007       C  0.43999833  0.69656124  0.91037785    -0.02800
C1008       C  0.44305404  0.72616315  0.91014917    -0.02800
C1009       C  0.43104486  0.73540777  0.88798627     0.07100
C1010       C  0.42124384  0.71686111  0.86413340    -0.03000
Br1011     Br  0.41710432  0.73294202  0.82915887    -0.01500
Br1012     Br  0.38976637  0.65860513  0.83625916    -0.01600
Br1013     Br  0.46504554  0.75469945  0.93965688    -0.01600
Br1014     Br  0.45872601  0.68561366  0.94000869    -0.01500
C1015       C  0.01398081  0.89825685  0.00242508    -0.02700
C1016       C  0.00636580  0.87970432  0.02605667     0.07000
C1017       C  0.47920732  0.85059945  0.02633760    -0.02800
C1018       C  0.46031738  0.83937064  0.00263693    -0.02800
C1019       C  0.46859688  0.85721907  0.97808460     0.07100
C1020       C  0.99497540  0.88749855  0.97873095    -0.03000
Br1021     Br  0.00667195  0.91488293  0.94754045    -0.01500
Br1022     Br  0.05176255  0.93786121  0.00218253    -0.01600
Br1023     Br  0.42241132  0.79990918  0.00490588    -0.01600
Br1024     Br  0.46845859  0.82580623  0.05936837    -0.01500
C1025       C  0.46804940  0.94329453  0.13489668    -0.02700
C1026       C  0.46196960  0.91334655  0.12766250     0.07000
C1027       C  0.43140687  0.89086881  0.11997987    -0.02800
C1028       C  0.40721172  0.89791415  0.12096356    -0.02800
C1029       C  0.41331551  0.92708548  0.13020536     0.07100
C1030       C  0.44378880  0.94963439  0.13717677    -0.03000
Br1031     Br  0.45262102  0.98944091  0.15074561    -0.01500
Br1032     Br  0.00976150  0.97705701  0.14053020    -0.01600
Br1033     Br  0.36545179  0.86722286  0.11102863    -0.01600
Br1034     Br  0.42209975  0.85008983  0.10937689    -0.01500
C1035       C  0.22333395  0.93522174  0.09013704    -0.02700
C1036       C  0.22808804  0.91662730  0.10925853     0.07000
C1037       C  0.20533041  0.90013544  0.12935887    -0.02800
C1038       C  0.17706004  0.90002205  0.12893791    -0.02800
C1039       C  0.17178048  0.91788279  0.10921585     0.07100
C1040       C  0.19561952  0.93640635  0.09054675    -0.03000
Br1041     Br  0.19081032  0.96409159  0.06592075    -0.01500
Br1042     Br  0.25493916  0.95945543  0.06344709    -0.01600
Br1043     Br  0.14465621  0.87207136  0.15374415    -0.01600
Br1044     Br  0.21127987  0.87530635  0.15648150    -0.01500
C1045       C  0.28875096  0.72581358  0.90531294    -0.02700
C1046       C  0.31305198  0.72449523  0.89182415     0.07000
C1047       C  0.30636272  0.69850386  0.87585335    -0.02800
C1048       C  0.27582069  0.67371467  0.87393816    -0.02800
C1049       C  0.25214513  0.67356695  0.88989891     0.07100
C1050       C  0.25859041  0.69988476  0.90525654    -0.03000
Br1051     Br  0.22599246  0.70025185  0.92609431    -0.01500
Br1052     Br  0.29641247  0.76351009  0.92271353    -0.01600
Br1053     Br  0.26747683  0.63936761  0.85053670    -0.01600
Br1054     Br  0.33939168  0.69535014  0.85853034    -0.01500
C1055       C  0.04684440  0.94300402  0.87811129    -0.02700
C1056       C  0.01748010  0.93475819  0.86689627     0.07000
C1057       C  0.01265284  0.95772475  0.85474156    -0.02800
C1058       C  0.03732747  0.98790114  0.85187626    -0.02800
C1059       C  0.06445259  0.49629761  0.87370329     0.07100
C1060       C  0.07110767  0.97407998  0.87708296    -0.03000
Br1061     Br  0.11099407  0.98586199  0.89307886    -0.01500
Br1062     Br  0.05447608  0.91177284  0.89323897    -0.01600
Br1063     Br  0.02829995  0.51896471  0.84463200    -0.01600
Br1064     Br  0.47177227  0.94886074  0.84300130    -0.01500
C1065       C  0.25450084  0.55411523  0.87568284    -0.02700
C1066       C  0.25112729  0.57447846  0.89349353     0.07000
C1067       C  0.27740971  0.59695174  0.90810309    -0.02800
C1068       C  0.30632110  0.59903735  0.90486666    -0.02800
C1069       C  0.30908359  0.57676557  0.88940101     0.07100
C1070       C  0.28331746  0.55490962  0.87398486    -0.03000
Br1071     Br  0.28731796  0.52601821  0.85086765    -0.01500
Br1072     Br  0.21931091  0.52407896  0.85479099    -0.01600
Br1073     Br  0.34285488  0.63451919  0.91995935    -0.01600
Br1074     Br  0.27504251  0.62614964  0.93240801    -0.01500
C1075       C  0.99920926  0.57040659  0.89830027    -0.02700
C1076       C  0.48587890  0.57576311  0.87446053     0.07000
C1077       C  0.00647062  0.59460309  0.85338159    -0.02800
C1078       C  0.03787362  0.60221353  0.85368977    -0.02800
C1079       C  0.04946413  0.59167632  0.87507162     0.07100
C1080       C  0.03036519  0.57708535  0.89809312    -0.03000
Br1081     Br  0.04531816  0.56312334  0.92855293    -0.01500
Br1082     Br  0.47639273  0.55569285  0.93225377    -0.01600
Br1083     Br  0.06536195  0.62740644  0.82465232    -0.01600
Br1084     Br  0.49314865  0.61227197  0.82461197    -0.01500
C1085       C  0.43543291  0.55402311  0.14512235    -0.02700
C1086       C  0.42519538  0.53257856  0.12342709     0.07000
C1087       C  0.44379948  0.53953323  0.09974990    -0.02800
C1088       C  0.47362243  0.56599092  0.09919930    -0.02800
C1089       C  0.98656943  0.58318769  0.12357585     0.07100
C1090       C  0.46604482  0.57912056  0.14540866    -0.03000
Br1091     Br  0.47876877  0.60828158  0.17541422    -0.01500
Br1092     Br  0.40743447  0.54860140  0.17472510    -0.01600
Br1093     Br  0.99503440  0.57903168  0.06449266    -0.01600
Br1094     Br  0.42880622  0.00777729  0.07139395    -0.01500
C1095       C  0.20376820  0.76000845  0.09182907    -0.02700
C1096       C  0.18151778  0.75189855  0.11285330     0.07000
C1097       C  0.18998208  0.77071729  0.13662822    -0.02800
C1098       C  0.21884639  0.79844001  0.13801318    -0.02800
C1099       C  0.23819625  0.80950253  0.11455092     0.07100
C1100       C  0.23180010  0.78861526  0.09258908    -0.03000
Br1101     Br  0.26222482  0.79799680  0.06417022    -0.01500
Br1102     Br  0.19609184  0.73186697  0.06181706    -0.01600
Br1103     Br  0.23139672  0.81978568  0.17279175    -0.01600
Br1104     Br  0.16127792  0.76122480  0.16657754    -0.01500
C1105       C  0.05484264  0.76152193  0.12260980    -0.02700
C1106       C  0.07889163  0.76044514  0.10830617     0.07000
C1107       C  0.10148574  0.78703235  0.09462765    -0.02800
C1108       C  0.09879953  0.81353619  0.09313583    -0.02800
C1109       C  0.07428802  0.81463510  0.10675500     0.07100
C1110       C  0.05268018  0.78868986  0.12199887    -0.03000
Br1111     Br  0.01923089  0.78977194  0.14066522    -0.01500
Br1112     Br  0.02455629  0.72571582  0.14243988    -0.01600
Br1113     Br  0.12998772  0.84836026  0.07253266    -0.01600
Br1114     Br  0.13788001  0.78817354  0.07942441    -0.01500
C1115       C  0.06161528  0.53057301  0.10819303    -0.02700
C1116       C  0.08223225  0.55265584  0.12715729     0.07000
C1117       C  0.10075469  0.54545588  0.14412377    -0.02800
C1118       C  0.09671734  0.51547937  0.14393436    -0.02800
C1119       C  0.08365688  0.99406151  0.12739457     0.07100
C1120       C  0.05695600  0.50041373  0.10827964    -0.03000
Br1121     Br  0.06787680  0.98361961  0.06844980    -0.01500
Br1122     Br  0.03782507  0.54083680  0.08324295    -0.01600
Br1123     Br  0.12339321  0.50664792  0.16651116    -0.01600
Br1124     Br  0.13210788  0.57705329  0.16721877    -0.01500
C1125       C  0.11799677  0.60925981  0.02654550    -0.02700
C1126       C  0.10716710  0.63045290  0.02375937     0.07000
C1127       C  0.10571331  0.64133286  0.99723689    -0.02800
C1128       C  0.11556424  0.63175556  0.97407691    -0.02800
C1129       C  0.12552562  0.61004634  0.97695947     0.07100
C1130       C  0.12615802  0.59842189  0.00316412    -0.03000
Br1131     Br  0.13827485  0.56747213  0.00683888    -0.01500
Br1132     Br  0.12525964  0.59733687  0.06217033    -0.01600
Br1133     Br  0.11708823  0.64979261  0.93860962    -0.01600
Br1134     Br  0.08975206  0.66910326  0.99239733    -0.01500
C1135       C  0.42546517  0.62566554  0.74169106    -0.02700
C1136       C  0.40740836  0.60299227  0.72211059     0.07000
C1137       C  0.37983256  0.57642499  0.73023773    -0.02800
C1138       C  0.37257933  0.57077795  0.75832594    -0.02800
C1139       C  0.39335910  0.59120199  0.77819816     0.07100
C1140       C  0.41867145  0.61964850  0.76984020    -0.03000
Br1141     Br  0.44642545  0.64841018  0.79688006    -0.01500
Br1142     Br  0.46105556  0.66369059  0.72989578    -0.01600
Br1143     Br  0.33565169  0.53376894  0.76996590    -0.01600
Br1144     Br  0.35402238  0.54616331  0.70322197    -0.01500
C1145       C  0.03636285  0.64872041  0.50176531    -0.02700
C1146       C  0.02261095  0.63991838  0.47555746     0.07000
C1147       C  0.48997849  0.62331137  0.47303473    -0.02800
C1148       C  0.47130932  0.61347831  0.49671203    -0.02800
C1149       C  0.48503377  0.62223521  0.52297667     0.07100
C1150       C  0.01763840  0.64073866  0.52530222    -0.03000
Br1151     Br  0.03696055  0.65831963  0.56000536    -0.01500
Br1152     Br  0.08104712  0.67241827  0.50537333    -0.01600
Br1153     Br  0.42683748  0.58807693  0.49317617    -0.01600
Br1154     Br  0.47066751  0.61739422  0.43741558    -0.01500
C1155       C  0.12094061  0.69333550  0.26269810    -0.02700
C1156       C  0.09741863  0.69313917  0.27865253     0.07000
C1157       C  0.07362096  0.69613039  0.26570641    -0.02800
C1158       C  0.07078061  0.69447205  0.23683936    -0.02800
C1159       C  0.09228649  0.69079718  0.22107527     0.07100
C1160       C  0.11851925  0.69241855  0.23387310    -0.03000
Br1161     Br  0.14948923  0.69019280  0.21200733    -0.01500
Br1162     Br  0.15559137  0.69333203  0.28055977    -0.01600
Br1163     Br  0.03671650  0.69554224  0.21886330    -0.01600
Br1164     Br  0.04346781  0.69974485  0.28758664    -0.01500
C1165       C  0.19987151  0.62014608  0.76766718    -0.02700
C1166       C  0.18779685  0.59100341  0.78040137     0.07000
C1167       C  0.18373587  0.56554042  0.76492806    -0.02800
C1168       C  0.18879646  0.56854724  0.73636326    -0.02800
C1169       C  0.19725767  0.59679380  0.72316977     0.07100
C1170       C  0.20437366  0.62296578  0.73899447    -0.03000
Br1171     Br  0.21767624  0.66191978  0.72091194    -0.01500
Br1172     Br  0.20668513  0.65537449  0.78901091    -0.01600
Br1173     Br  0.18121345  0.53324028  0.71470639    -0.01600
Br1174     Br  0.16933666  0.52615232  0.78265021    -0.01500
C1175       C  0.28562279  0.58707598  0.63880262    -0.02700
C1176       C  0.26541964  0.57413408  0.61608102     0.07000
C1177       C  0.27321631  0.56005467  0.59499202    -0.02800
C1178       C  0.30288824  0.56321881  0.59432113    -0.02800
C1179       C  0.32474333  0.57967091  0.61532609     0.07100
C1180       C  0.31475014  0.58888468  0.63885528    -0.03000
Br1181     Br  0.34038279  0.60507069  0.67128719    -0.01500
Br1182     Br  0.27544142  0.60552596  0.66883409    -0.01600
Br1183     Br  0.31285547  0.54406498  0.56475267    -0.01600
Br1184     Br  0.24312255  0.53642509  0.56679001    -0.01500
C1185       C  0.06997906  0.58017920  0.59886139    -0.02700
C1186       C  0.09341222  0.59171702  0.61935146     0.07000
C1187       C  0.09626090  0.61563922  0.63679448    -0.02800
C1188       C  0.07273284  0.62331635  0.63735881    -0.02800
C1189       C  0.04689017  0.60813985  0.61987084     0.07100
C1190       C  0.04666848  0.58828725  0.59923123    -0.03000
Br1191     Br  0.51263538  0.56912568  0.57332885    -0.01500
Br1192     Br  0.06802048  0.55198843  0.57105422    -0.01600
Br1193     Br  0.07532270  0.65421442  0.66249959    -0.01600
Br1194     Br  0.13242827  0.63838026  0.65998595    -0.01500
C1195       C  0.14627270  0.01262455  0.47557059    -0.02700
C1196       C  0.12565447  0.98055788  0.47851340     0.07000
C1197       C  0.11542036  0.96827840  0.50501394    -0.02800
C1198       C  0.12957043  0.48511554  0.53156953    -0.02800
C1199       C  0.14775501  0.51742481  0.52788915     0.07100
C1200       C  0.15789104  0.52916918  0.50120008    -0.03000
Br1201     Br  0.18459412  0.57297433  0.49550411    -0.01500
Br1202     Br  0.16514088  0.02970583  0.44067885    -0.01600
Br1203     Br  0.12516308  0.46745817  0.56768617    -0.01600
Br1204     Br  0.08574160  0.92494130  0.50937672    -0.01500
C1205       C  0.12509710  0.56489979  0.36413757    -0.02700
C1206       C  0.11245744  0.54150665  0.38420922     0.07000
C1207       C  0.09491997  0.54389524  0.40569823    -0.02800
C1208       C  0.08613152  0.56673758  0.40470204    -0.02800
C1209       C  0.09448144  0.58711923  0.38179885     0.07100
C1210       C  0.11674118  0.58793455  0.36319328    -0.03000
Br1211     Br  0.13711055  0.62107940  0.33676975    -0.01500
Br1212     Br  0.15344872  0.56469138  0.33739984    -0.01600
Br1213     Br  0.06222821  0.56873271  0.43480834    -0.01600
Br1214     Br  0.06820925  0.00427257  0.42339419    -0.01500
C1215       C  0.08798705  0.80701463  0.36446547    -0.02700
C1216       C  0.07776132  0.81663795  0.38754875     0.07000
C1217       C  0.06172658  0.79483580  0.40859864    -0.02800
C1218       C  0.05958252  0.76562895  0.40826508    -0.02800
C1219       C  0.07405816  0.75804948  0.38729828     0.07100
C1220       C  0.08714555  0.77841541  0.36478924    -0.03000
Br1221     Br  0.10723583  0.76919001  0.33551361    -0.01500
Br1222     Br  0.10421377  0.83268582  0.33227366    -0.01600
Br1223     Br  0.03656090  0.73573445  0.43658517    -0.01600
Br1224     Br  0.04148086  0.80429642  0.43750891    -0.01500
C1225       C  0.12226200  0.91806014  0.23167461    -0.02700
C1226       C  0.09388344  0.89399686  0.22149277     0.07000
C1227       C  0.07257970  0.87148763  0.23973938    -0.02800
C1228       C  0.07765038  0.87535080  0.26832135    -0.02800
C1229       C  0.10437763  0.90143836  0.27858701     0.07100
C1230       C  0.12773469  0.92136431  0.26023844    -0.03000
Br1231     Br  0.16579723  0.95510725  0.27463334    -0.01500
Br1232     Br  0.15140989  0.94903714  0.20685377    -0.01600
Br1233     Br  0.04610798  0.84739834  0.29336886    -0.01600
Br1234     Br  0.03456215  0.83756229  0.22544536    -0.01500
C1235       C  0.37275521  0.79204750  0.73397377    -0.02700
C1236       C  0.40119193  0.80018786  0.72125701     0.07000
C1237       C  0.42593109  0.80241341  0.73720596    -0.02800
C1238       C  0.42343439  0.79998513  0.76604882    -0.02800
C1239       C  0.39589411  0.79463666  0.77894091     0.07100
C1240       C  0.37011500  0.78934513  0.76279446    -0.03000
Br1241     Br  0.33230841  0.78156395  0.78042222    -0.01500
Br1242     Br  0.33873835  0.78852535  0.71204633    -0.01600
Br1243     Br  0.45933135  0.80881048  0.78809769    -0.01600
Br1244     Br  0.46428178  0.81198870  0.71958496    -0.01500
C1245       C  0.32432120  0.71669077  0.58989727    -0.02700
C1246       C  0.32653749  0.74196267  0.60481295     0.07000
C1247       C  0.30102252  0.73726303  0.62095272    -0.02800
C1248       C  0.27358841  0.70785486  0.62184884    -0.02800
C1249       C  0.27144872  0.68287391  0.60664533     0.07100
C1250       C  0.29711436  0.68760200  0.59074947    -0.03000
Br1251     Br  0.29602791  0.65372722  0.57077151    -0.01500
Br1252     Br  0.35917328  0.72067247  0.56914707    -0.01600
Br1253     Br  0.23836357  0.70221369  0.64268591    -0.01600
Br1254     Br  0.30301931  0.77146234  0.64064091    -0.01500
C1255       C  0.02833764  0.92199701  0.65429600    -0.02700
C1256       C  0.50798007  0.91511048  0.63150104     0.07000
C1257       C  0.02049154  0.93181780  0.60677759    -0.02800
C1258       C  0.04890309  0.95977117  0.60720156    -0.02800
C1259       C  0.06761360  0.96892205  0.63111617     0.07100
C1260       C  0.05805256  0.94873562  0.65398396    -0.03000
Br1261     Br  0.08563389  0.95759735  0.68507843    -0.01500
Br1262     Br  0.01699752  0.89447045  0.68553257    -0.01600
Br1263     Br  0.06246612  0.47908390  0.57438721    -0.01600
Br1264     Br  0.50029137  0.91632538  0.57160537    -0.01500
C1265       C  0.42362549  0.70214987  0.63397771    -0.02700
C1266       C  0.43694707  0.69456044  0.61195970     0.07000
C1267       C  0.45264365  0.71688695  0.59118959    -0.02800
C1268       C  0.45157535  0.74453762  0.59063314    -0.02800
C1269       C  0.43422658  0.74988426  0.61051233     0.07100
C1270       C  0.42110446  0.72887717  0.63274195    -0.03000
Br1271     Br  0.39622104  0.73389891  0.66048281    -0.01500
Br1272     Br  0.40750789  0.67596982  0.66594470    -0.01600
Br1273     Br  0.47440978  0.77514804  0.56273969    -0.01600
Br1274     Br  0.47676164  0.71025664  0.56395325    -0.01500
C1275       C  0.45380141  0.97545035  0.63604978    -0.02700
C1276       C  0.42406723  0.95144946  0.62770249     0.07000
C1277       C  0.40175753  0.95930130  0.61879438    -0.02800
C1278       C  0.40904322  0.99059641  0.61886911    -0.02800
C1279       C  0.43499017  0.51281563  0.63118783     0.07100
C1280       C  0.46061680  0.00618241  0.63660545    -0.03000
Br1281     Br  0.49835567  0.53630343  0.65056108    -0.01500
Br1282     Br  0.48655625  0.96742621  0.64668450    -0.01600
Br1283     Br  0.37843579  0.00130336  0.60774666    -0.01600
Br1284     Br  0.36067027  0.92731731  0.60834219    -0.01500
C1285       C  0.29878269  0.86792657  0.26131260    -0.02700
C1286       C  0.29738561  0.88921711  0.27923371     0.07000
C1287       C  0.28887761  0.91026990  0.26883709    -0.02800
C1288       C  0.28631631  0.91289186  0.24020989    -0.02800
C1289       C  0.29329367  0.89527526  0.22225684     0.07100
C1290       C  0.29762802  0.87150355  0.23277043    -0.03000
Br1291     Br  0.30688120  0.84717183  0.20813353    -0.01500
Br1292     Br  0.30596048  0.83615228  0.27598579    -0.01600
Br1293     Br  0.27739700  0.94335914  0.22526855    -0.01600
Br1294     Br  0.28555643  0.93865770  0.29322985    -0.01500
C1295       C  0.40222709  0.90528624  0.52152475    -0.02700
C1296       C  0.40502431  0.87840399  0.52176162     0.07000
C1297       C  0.40039593  0.86223069  0.49678365    -0.02800
C1298       C  0.38786163  0.86921608  0.47369935    -0.02800
C1299       C  0.38238693  0.89412106  0.47441065     0.07100
C1300       C  0.39049598  0.91274630  0.49798119    -0.03000
Br1301     Br  0.38385015  0.94754647  0.49827841    -0.01500
Br1302     Br  0.41454222  0.93265369  0.55260918    -0.01600
Br1303     Br  0.37573004  0.84302868  0.44174121    -0.01600
Br1304     Br  0.41341403  0.83199391  0.49317363    -0.01500
C1305       C  0.42011096  0.51841202  0.34889856    -0.02700
C1306       C  0.41245229  0.99712069  0.36382746     0.07000
C1307       C  0.43090268  0.51087333  0.39629978    -0.02800
C1308       C  0.45799414  0.54018121  0.39615664    -0.02800
C1309       C  0.46686717  0.55843457  0.37209035     0.07100
C1310       C  0.44645701  0.54834803  0.34928397    -0.03000
Br1311     Br  0.45431393  0.57594336  0.31858222    -0.01500
Br1312     Br  0.39234317  0.50657584  0.31760039    -0.01600
Br1313     Br  0.98410060  0.55344964  0.42854542    -0.01600
Br1314     Br  0.40748072  0.99223974  0.42385293    -0.01500
C1315       C  0.21869007  0.81416105  0.41165733    -0.02700
C1316       C  0.24293890  0.81695679  0.39465843     0.07000
C1317       C  0.23665012  0.79306870  0.37582992    -0.02800
C1318       C  0.20676103  0.76629712  0.37473358    -0.02800
C1319       C  0.18296047  0.76340931  0.39230801     0.07100
C1320       C  0.18901405  0.78790443  0.41021918    -0.03000
Br1321     Br  0.15597711  0.78688627  0.43184203    -0.01500
Br1322     Br  0.22476044  0.84691614  0.43635267    -0.01600
Br1323     Br  0.19877986  0.73329768  0.34983063    -0.00400
Br1324     Br  0.26926361  0.79635322  0.35245774    -0.01500
C1325       C  0.47633151  0.94558664  0.36510563    -0.02700
C1326       C  0.45237247  0.91554340  0.37210836     0.07000
C1327       C  0.46042004  0.89301526  0.37930073    -0.02800
C1328       C  0.49194678  0.90062628  0.37925553    -0.02800
C1329       C  0.01521574  0.93008725  0.37043223     0.07100
C1330       C  0.50705309  0.95219604  0.36280598    -0.03000
Br1331     Br  0.03748111  0.99140165  0.34744414    -0.01500
Br1332     Br  0.46816046  0.97895290  0.35939957    -0.01600
Br1333     Br  0.50318962  0.87030522  0.38954765    -0.01600
Br1334     Br  0.42852324  0.85123485  0.38684873    -0.01500
C1335       C  0.22597845  0.90763672  0.36964994    -0.02700
C1336       C  0.24761029  0.92117249  0.39138557     0.07000
C1337       C  0.24278986  0.93878631  0.41125423    -0.02800
C1338       C  0.21559561  0.94094901  0.41044162    -0.02800
C1339       C  0.19300424  0.92578862  0.38955621     0.07100
C1340       C  0.20013332  0.91182939  0.36772389    -0.03000
Br1341     Br  0.17592913  0.89906599  0.33430495    -0.01500
Br1342     Br  0.22871619  0.87939911  0.34434875    -0.01600
Br1343     Br  0.21053996  0.96659979  0.43707567    -0.01600
Br1344     Br  0.27325232  0.95995868  0.43984080    -0.01500
O1345       O  0.84346567  0.40898319  0.30745875    -0.81700
O1346       O  0.87788945  0.41452175  0.43464949    -0.66400
O1347       O  0.84730250  0.39032179  0.36123370    -1.13000
C1348       C  0.77178238  0.41561629  0.39201949     1.05200
O1349       O  0.83132238  0.38497650  0.45168443    -0.79600
O1350       O  0.77762965  0.35880067  0.42150454    -0.67200
Ni1351     Ni  0.87534182  0.41244521  0.33192859     1.34900
C1352       C  0.76990891  0.34548385  0.39832270     0.83900
O1353       O  0.89749523  0.39515801  0.39233475    -0.80200
O1354       O  0.91108585  0.41694952  0.35108247    -0.90400
C1355       C  0.86076890  0.39901281  0.45452376     0.83500
O1356       O  0.88294321  0.45191133  0.34477954    -0.68600
O1357       O  0.78034203  0.41376897  0.41652395    -0.87900
C1358       C  0.89414824  0.46357181  0.36818761     0.84300
C1359       C  0.91745328  0.40799441  0.37336858     1.05900
H1360       H  0.84089239  0.43510206  0.40087631     0.37700
O1361       O  0.83190744  0.41295688  0.40092619    -1.10600
O1362       O  0.78503692  0.35745815  0.37633595    -0.67200
Ni1363     Ni  0.81433919  0.39933904  0.36546209     1.26300
O1364       O  0.89185342  0.44637533  0.38842681    -0.67500
O1365       O  0.78321618  0.41054330  0.37064756    -0.79800
C1366       C  0.81405953  0.39346567  0.30734774     0.83700
O1367       O  0.79817106  0.38552175  0.32920143    -0.66900
Ni1368     Ni  0.80672571  0.39976130  0.43272056     1.27400
Ni1369     Ni  0.86417417  0.40344076  0.39747051     1.26100
H1370       H  0.83919858  0.36839876  0.35920734     0.38200
O1371       O  0.91711385  0.34522040  0.69737346    -0.81700
O1372       O  0.92111733  0.38133171  0.57065246    -0.66400
O1373       O  0.89994694  0.34852941  0.64344533    -1.13000
C1374       C  0.92995681  0.27776211  0.60897014     1.05200
O1375       O  0.89378218  0.33472423  0.55220375    -0.79600
O1376       O  0.86976646  0.28159355  0.58191128    -0.67200
Ni1377     Ni  0.92143527  0.37696322  0.67276452     1.34900
C1378       C  0.85766781  0.27209372  0.60538843     0.83900
O1379       O  0.90129320  0.39811555  0.61419235    -0.80200
O1380       O  0.92693893  0.41309421  0.65365959    -0.90400
C1381       C  0.90481446  0.36382661  0.55119392     0.83500
O1382       O  0.96038783  0.38326839  0.65985947    -0.68600
O1383       O  0.92589707  0.28554828  0.58485057    -0.87900
C1384       C  0.97223083  0.39526616  0.63678395     0.84300
C1385       C  0.91530793  0.41851408  0.63253648     1.05900
H1386       H  0.94572768  0.34604564  0.60136545     0.37700
O1387       O  0.92338772  0.33602719  0.60218613    -1.10600
O1388       O  0.87058548  0.28604186  0.62776696    -0.67200
Ni1389     Ni  0.91241354  0.31809095  0.63771674     1.26300
O1390       O  0.95510855  0.39486885  0.61688121    -0.67500
O1391       O  0.92681312  0.28978124  0.63087626    -0.79800
C1392       C  0.90694452  0.31643538  0.69658984     0.83700
O1393       O  0.90180511  0.30148057  0.67431620    -0.66900
Ni1394     Ni  0.91034002  0.31125598  0.57008662     1.27400
Ni1395     Ni  0.91177652  0.36655493  0.60754858     1.26100
H1396       H  0.87775010  0.33887093  0.64576167     0.38200
O1397       O  0.58986444  0.43287257  0.30971490    -0.81700
O1398       O  0.60075210  0.46083546  0.43903846    -0.66400
O1399       O  0.61410128  0.45121101  0.36334314    -1.13000
C1400       C  0.58407507  0.34820227  0.39064231     1.05200
O1401       O  0.62489699  0.43659208  0.45456040    -0.79600
O1402       O  0.64894183  0.41467979  0.41703944    -0.67200
Ni1403     Ni  0.59532744  0.46403118  0.33566737     1.34900
C1404       C  0.65853827  0.41925935  0.39241161     0.83900
O1405       O  0.62052053  0.49972283  0.39727719    -0.80200
O1406       O  0.59999848  0.49868078  0.35634578    -0.90400
C1407       C  0.61651977  0.45666574  0.45736743     0.83500
O1408       O  0.55460391  0.43826864  0.34978891    -0.68600
O1409       O  0.59388914  0.35969568  0.41451044    -0.87900
C1410       C  0.54551501  0.43802949  0.37420395     0.84300
C1411       C  0.61306955  0.01264531  0.37457393     1.05900
H1412       H  0.56983175  0.40240390  0.40672217     0.37700
O1413       O  0.59200756  0.41333646  0.40396420    -1.10600
O1414       O  0.64118750  0.41654751  0.37206741    -0.67200
Ni1415     Ni  0.59909521  0.40762043  0.36649119     1.26300
O1416       O  0.56372143  0.44688511  0.39503609    -0.67500
O1417       O  0.58322724  0.36413171  0.37055102    -0.79800
C1418       C  0.59869602  0.41318743  0.30794691     0.83700
O1419       O  0.60605604  0.40285050  0.32870583    -0.66900
Ni1420     Ni  0.60874410  0.39920769  0.43253403     1.27400
Ni1421     Ni  0.60640685  0.45651759  0.40095409     1.26100
H1422       H  0.63624883  0.46230923  0.36034609     0.38200
O1423       O  0.66573155  0.09110659  0.68640377    -0.81700
O1424       O  0.63863684  0.04155320  0.56622176    -0.66400
O1425       O  0.66306833  0.05634788  0.64142635    -1.13000
C1426       C  0.74620852  0.15090654  0.60542766     1.05200
O1427       O  0.68681395  0.05680635  0.55328188    -0.79600
O1428       O  0.73835942  0.08728979  0.58550552    -0.67200
Ni1429     Ni  0.63488885  0.05370593  0.66899041     1.34900
C1430       C  0.74086497  0.07837309  0.60935833     0.83900
O1431       O  0.61482503  0.50681163  0.61376284    -0.80200
O1432       O  0.59966713  0.51355617  0.65512423    -0.90400
C1433       C  0.65756642  0.04062473  0.54945028     0.83500
O1434       O  0.62069698  0.07747854  0.65013292    -0.68600
O1435       O  0.73581963  0.13972577  0.58155620    -0.87900
C1436       C  0.61533956  0.07968777  0.62499544     0.84300
C1437       C  0.59587077  0.49728551  0.63375856     1.05900
H1438       H  0.67553134  0.10379620  0.59615779     0.37700
O1439       O  0.68339057  0.08980363  0.59864491    -1.10600
O1440       O  0.72349690  0.07638376  0.62924807    -0.67200
Ni1441     Ni  0.69906732  0.09590438  0.63518674     1.26300
O1442       O  0.62260991  0.06704432  0.60607516    -0.67500
O1443       O  0.73492308  0.13596442  0.62780587    -0.79800
C1444       C  0.69344996  0.09807256  0.69175592     0.83700
O1445       O  0.71159103  0.09969731  0.67286887    -0.66900
Ni1446     Ni  0.71037898  0.09801197  0.56863527     1.27400
Ni1447     Ni  0.64915952  0.04907990  0.60434664     1.26100
H1448       H  0.66950782  0.04165644  0.64629811     0.38200
O1449       O  0.58813378  0.15533828  0.30945476    -0.81700
O1450       O  0.53966000  0.12839067  0.43022161    -0.66400
O1451       O  0.55398386  0.15263889  0.35500216    -1.13000
C1452       C  0.64926903  0.23494196  0.39136735     1.05200
O1453       O  0.55507589  0.17652674  0.44247431    -0.79600
O1454       O  0.58541361  0.22745017  0.41115852    -0.67200
Ni1455     Ni  0.55118371  0.12442011  0.32753122     1.34900
C1456       C  0.57621474  0.23014126  0.38746723     0.83900
O1457       O  0.50586439  0.10497657  0.38430530    -0.80200
O1458       O  0.51329454  0.09089854  0.34274516    -0.90400
C1459       C  0.53967238  0.14768802  0.44707327     0.83500
O1460       O  0.57572457  0.11039312  0.34588339    -0.68600
O1461       O  0.63804631  0.22449667  0.41511113    -0.87900
C1462       C  0.57666720  0.10382530  0.37093910     0.84300
C1463       C  0.99659610  0.08638393  0.36401256     1.05900
H1464       H  0.60186664  0.16460963  0.39999587     0.37700
O1465       O  0.58792122  0.17260002  0.39764451    -1.10600
O1466       O  0.57443926  0.21317319  0.36731503    -0.67200
Ni1467     Ni  0.59385858  0.18847955  0.36125625     1.26300
O1468       O  0.56416515  0.11147052  0.38984208    -0.67500
O1469       O  0.63433158  0.22402441  0.36882677    -0.79800
C1470       C  0.59548687  0.18313492  0.30451775     0.83700
O1471       O  0.59747117  0.20109607  0.32368536    -0.66900
Ni1472     Ni  0.59627694  0.19952113  0.42767977     1.27400
Ni1473     Ni  0.54679811  0.13870133  0.39201780     1.26100
H1474       H  0.53921064  0.15906170  0.35017323     0.38200
O1475       O  0.94112266  0.09300785  0.69189426    -0.81700
O1476       O  0.96908912  0.09854946  0.56431299    -0.66400
O1477       O  0.96283682  0.11720987  0.63891889    -1.13000
C1478       C  0.85998144  0.08884927  0.61042572     1.05200
O1479       O  0.94953482  0.12713233  0.54918426    -0.79600
O1480       O  0.92413870  0.15152502  0.58303386    -0.67200
Ni1481     Ni  0.97399870  0.09845442  0.66784328     1.34900
C1482       C  0.93142356  0.16317362  0.60692634     0.83900
O1483       O  0.00902295  0.11858805  0.60556917    -0.80200
O1484       O  0.00947863  0.10273547  0.64837321    -0.90400
C1485       C  0.96657695  0.11511775  0.54588464     0.83500
O1486       O  0.94866123  0.05719725  0.65483920    -0.68600
O1487       O  0.87073811  0.09534562  0.58599896    -0.87900
C1488       C  0.94655631  0.04675703  0.63069336     0.84300
C1489       C  0.52172944  0.11170545  0.62480799     1.05900
H1490       H  0.91167078  0.07289467  0.59762007     0.37700
O1491       O  0.92394220  0.09508720  0.59904085    -1.10600
O1492       O  0.93204607  0.14798563  0.62771494    -0.67200
Ni1493     Ni  0.92002367  0.10560195  0.63555919     1.26300
O1494       O  0.95440233  0.06382290  0.60925454    -0.67500
O1495       O  0.87692731  0.09239866  0.63134018    -0.79800
C1496       C  0.92349267  0.10447238  0.69317013     0.83700
O1497       O  0.91692080  0.11553860  0.67254244    -0.66900
Ni1498     Ni  0.91089817  0.11099479  0.56920091     1.27400
Ni1499     Ni  0.96643190  0.10674131  0.60194086     1.26100
H1500       H  0.97547234  0.13932376  0.64096344     0.38200
O1501       O  0.56920724  0.14969448  0.18698318    -0.81700
O1502       O  0.58091789  0.12059532  0.06397661    -0.66400
O1503       O  0.59699049  0.14669823  0.13848022    -1.13000
C1504       C  0.58364683  0.22854284  0.10387979     1.05200
O1505       O  0.61417122  0.16766697  0.04914025    -0.79600
O1506       O  0.63922385  0.21954611  0.08111452    -0.67200
Ni1507     Ni  0.57391274  0.11894873  0.16748630     1.34900
C1508       C  0.65130537  0.22251885  0.10479726     0.83900
O1509       O  0.59493151  0.09918414  0.10839136    -0.80200
O1510       O  0.57732765  0.08567950  0.15139488    -0.90400
C1511       C  0.59964765  0.13847733  0.04595851     0.83500
O1512       O  0.53402170  0.10455038  0.15150071    -0.68600
O1513       O  0.58474488  0.21910492  0.07979198    -0.87900
C1514       C  0.52451752  0.09882454  0.12681891     0.84300
C1515       C  0.58758695  0.08123168  0.12895810     1.05900
H1516       H  0.55859334  0.15826769  0.09484938     0.37700
O1517       O  0.58061695  0.16600711  0.09656862    -1.10600
O1518       O  0.63595909  0.20619842  0.12518664    -0.67200
Ni1519     Ni  0.59226814  0.18182311  0.13278669     1.26300
O1520       O  0.54318431  0.10585999  0.10673379    -0.67500
O1521       O  0.58708081  0.21680124  0.12604839    -0.79800
C1522       C  0.58973345  0.17785554  0.19011545     0.83700
O1523       O  0.60343903  0.19511433  0.16979801    -0.66900
Ni1524     Ni  0.59894494  0.19256731  0.06590226     1.27400
Ni1525     Ni  0.58757483  0.13231277  0.10172166     1.26100
H1526       H  0.61859746  0.15340229  0.14189174     0.38200
O1527       O  0.64881382  0.07873416  0.80283087    -0.81700
O1528       O  0.61423503  0.08057060  0.92892324    -0.66400
O1529       O  0.64497709  0.09917890  0.85549420    -1.13000
C1530       C  0.71922056  0.07304993  0.89103780     1.05200
O1531       O  0.66187645  0.10761078  0.94585639    -0.79600
O1532       O  0.71464191  0.12918186  0.91633704    -0.67200
Ni1533     Ni  0.61758822  0.08024338  0.82508965     1.34900
C1534       C  0.72099328  0.14265236  0.89315461     0.83900
O1535       O  0.59726343  0.10013523  0.88475635    -0.80200
O1536       O  0.58324448  0.08107656  0.84250735    -0.90400
C1537       C  0.63275916  0.09667361  0.94801719     0.83500
O1538       O  0.60329777  0.03942147  0.83838071    -0.68600
O1539       O  0.70821614  0.07236185  0.91485031    -0.87900
C1540       C  0.59119217  0.02897141  0.86175466     0.84300
C1541       C  0.57798929  0.09063897  0.86490472     1.05900
H1542       H  0.64775934  0.05390242  0.89726719     0.37700
O1543       O  0.65816800  0.07614338  0.89685870    -1.10600
O1544       O  0.70492242  0.13060363  0.87168784    -0.67200
Ni1545     Ni  0.67668110  0.08862680  0.86170838     1.26300
O1546       O  0.59716360  0.04593208  0.88301487    -0.67500
O1547       O  0.70858930  0.07826939  0.86893447    -0.79800
C1548       C  0.67834647  0.09284310  0.80381440     0.83700
O1549       O  0.69351658  0.10117713  0.82604451    -0.66900
Ni1550     Ni  0.68376336  0.08931963  0.92884216     1.27400
Ni1551     Ni  0.62787144  0.08845352  0.89154250     1.26100
H1552       H  0.65433286  0.12124978  0.85326036     0.38200
O1553       O  0.57813151  0.41743717  0.18994409    -0.81700
O1554       O  0.53380539  0.40437554  0.06790420    -0.66400
O1555       O  0.54473867  0.38693001  0.14235864    -1.13000
C1556       C  0.64419792  0.40961439  0.11058893     1.05200
O1557       O  0.55315832  0.37625122  0.05167093    -0.79600
O1558       O  0.58234389  0.35352076  0.08259334    -0.67200
Ni1559     Ni  0.54026707  0.40914609  0.17200099     1.34900
C1560       C  0.57619649  0.34006375  0.10572028     0.83900
O1561       O  0.49828673  0.39108863  0.11241656    -0.80200
O1562       O  0.50199014  0.40314609  0.15722736    -0.90400
C1563       C  0.53452657  0.38666764  0.04971055     0.83500
O1564       O  0.56204724  0.44964570  0.15625956    -0.68600
O1565       O  0.63436183  0.40922724  0.08603563    -0.87900
C1566       C  0.56373994  0.45908263  0.13170497     0.84300
C1567       C  0.98874090  0.39842272  0.13385467     1.05900
H1568       H  0.59423800  0.42869875  0.10117086     0.37700
O1569       O  0.58096574  0.40654398  0.10150193    -1.10600
O1570       O  0.57207663  0.35167586  0.12754822    -0.67200
Ni1571     Ni  0.58582069  0.39429627  0.13739097     1.26300
O1572       O  0.55520019  0.44098505  0.11124862    -0.67500
O1573       O  0.62751387  0.40418535  0.13182046    -0.79800
C1574       C  0.58701214  0.39810697  0.19418080     0.83700
O1575       O  0.58866774  0.38255729  0.17449502    -0.66900
Ni1576     Ni  0.59325370  0.39350884  0.07007395     1.27400
Ni1577     Ni  0.53914734  0.39752853  0.10579015     1.26100
H1578       H  0.53071474  0.36513667  0.14525410     0.38200
O1579       O  0.90213968  0.33065982  0.81715840    -0.81700
O1580       O  0.94552254  0.35791431  0.93865720    -0.66400
O1581       O  0.93748783  0.33433235  0.86301659    -1.13000
C1582       C  0.84470079  0.24798156  0.89624229     1.05200
O1583       O  0.93875256  0.31230409  0.94999284    -0.79600
O1584       O  0.91449466  0.26084202  0.91715633    -0.67200
Ni1585     Ni  0.94001485  0.36116544  0.83399582     1.34900
C1586       C  0.92148450  0.25821107  0.89265355     0.83900
O1587       O  0.97964733  0.38600734  0.89394131    -0.80200
O1588       O  0.97799403  0.39387934  0.84844776    -0.90400
C1589       C  0.94977360  0.34087669  0.95554892     0.83500
O1590       O  0.91747364  0.37794910  0.85096824    -0.68600
O1591       O  0.85720426  0.25497402  0.92021936    -0.87900
C1592       C  0.91121816  0.38088543  0.87560179     0.84300
C1593       C  0.49007043  0.40243464  0.87225096     1.05900
H1594       H  0.88692700  0.31633475  0.90741188     0.37700
O1595       O  0.90285461  0.31101788  0.90457825    -1.10600
O1596       O  0.91898753  0.27347223  0.87281848    -0.67200
Ni1597     Ni  0.89852109  0.29726276  0.86768773     1.26300
O1598       O  0.91889243  0.36995081  0.89590888    -0.67500
O1599       O  0.85881439  0.26157583  0.87415907    -0.79800
C1600       C  0.89751027  0.30423887  0.81085640     0.83700
O1601       O  0.89596455  0.28589700  0.82962264    -0.66900
Ni1602     Ni  0.89821158  0.28418484  0.93397309     1.27400
Ni1603     Ni  0.94152352  0.34806595  0.90016532     1.26100
H1604       H  0.95340507  0.32908260  0.85979607     0.38200
O1605       O  0.83831751  0.41973313  0.19385822    -0.81700
O1606       O  0.86033184  0.45275006  0.06616007    -0.66400
O1607       O  0.83419514  0.43999583  0.14092289    -1.13000
C1608       C  0.76462942  0.33766112  0.10921073     1.05200
O1609       O  0.81200933  0.42973009  0.05039141    -0.79600
O1610       O  0.76346959  0.40218242  0.08472931    -0.67200
Ni1611     Ni  0.86501771  0.45192673  0.16913161     1.34900
C1612       C  0.75785368  0.40653519  0.10916004     0.83900
O1613       O  0.87681276  0.48989649  0.10883220    -0.80200
O1614       O  0.89593680  0.48741478  0.14945808    -0.90400
C1615       C  0.84069817  0.44945740  0.04787621     0.83500
O1616       O  0.87971145  0.42636412  0.15491615    -0.68600
O1617       O  0.76806820  0.34996531  0.08548837    -0.87900
C1618       C  0.89032715  0.42779074  0.13097977     0.84300
C1619       C  0.89606337  0.00832389  0.12717721     1.05900
H1620       H  0.83210967  0.39347153  0.09712261     0.37700
O1621       O  0.82061487  0.40386681  0.09951586    -1.10600
O1622       O  0.77274338  0.40512124  0.12991285    -0.67200
Ni1623     Ni  0.80585780  0.39652965  0.13635708     1.26300
O1624       O  0.88233860  0.43795842  0.11016312    -0.67500
O1625       O  0.77853418  0.35320167  0.13056254    -0.79800
C1626       C  0.80967790  0.39976392  0.19486094     0.83700
O1627       O  0.79237250  0.39022202  0.17375781    -0.66900
Ni1628     Ni  0.79143164  0.39064508  0.06970798     1.27400
Ni1629     Ni  0.84879384  0.44685289  0.10380696     1.26100
H1630       H  0.82294008  0.45079573  0.14391884     0.38200
O1631       O  0.89866596  0.05639554  0.80286657    -0.81700
O1632       O  0.89364097  0.02542571  0.93067026    -0.66400
O1633       O  0.87823361  0.03761358  0.85594222    -1.13000
C1634       C  0.91061493  0.13953099  0.88925261     1.05200
O1635       O  0.86546445  0.04545207  0.94484108    -0.79600
O1636       O  0.84649629  0.07650918  0.91246987    -0.67200
Ni1637     Ni  0.89805977  0.02671114  0.82805614     1.34900
C1638       C  0.83569973  0.07320496  0.88827516     0.83900
O1639       O  0.87547268  0.49062639  0.89100618    -0.80200
O1640       O  0.90241650  0.49675249  0.85327672    -0.90400
C1641       C  0.87641683  0.02757744  0.94858165     0.83500
O1642       O  0.93816832  0.05597584  0.84144422    -0.68600
O1643       O  0.90388902  0.12729753  0.91321058    -0.87900
C1644       C  0.94902278  0.05749086  0.86546924     0.84300
C1645       C  0.88764214  0.48088361  0.87405138     1.05900
H1646       H  0.92278333  0.08501338  0.89972639     0.37700
O1647       O  0.90050819  0.07364701  0.89742792    -1.10600
O1648       O  0.85018981  0.07237665  0.86707973    -0.67200
Ni1649     Ni  0.89241712  0.08108279  0.86092421     1.26300
O1650       O  0.93096828  0.04381602  0.88584681    -0.67500
O1651       O  0.90776246  0.12418524  0.86746329    -0.79800
C1652       C  0.89185644  0.07764707  0.80230236     0.83700
O1653       O  0.88570273  0.08804516  0.82355587    -0.66900
Ni1654     Ni  0.88535920  0.08579886  0.92767111     1.27400
Ni1655     Ni  0.88733347  0.03121931  0.89280467     1.26100
H1656       H  0.85605173  0.02616894  0.85297727     0.38200
C1657       C  0.86141432  0.00423605  0.02385460    -0.02700
C1658       C  0.85084108  0.46994383  0.02357403     0.07000
C1659       C  0.84676707  0.45729063  0.99711990    -0.02800
C1660       C  0.85341803  0.47633167  0.97384046    -0.02800
C1661       C  0.86772448  0.00840032  0.97393604     0.07100
C1662       C  0.87134843  0.02242954  0.99984952    -0.03000
Br1663     Br  0.88944023  0.06665382  0.00270440    -0.01500
Br1664     Br  0.86067345  0.02301582  0.05806227    -0.01600
Br1665     Br  0.83680103  0.45702203  0.93897993    -0.01600
Br1666     Br  0.83175980  0.41371637  0.99273578    -0.01500
C1667       C  0.90070740  0.44633709  0.90173472    -0.02700
C1668       C  0.88612609  0.45087874  0.87866709     0.07000
C1669       C  0.87328292  0.42801147  0.85821994    -0.02800
C1670       C  0.87780260  0.40243546  0.85931555    -0.02800
C1671       C  0.89663582  0.40030588  0.88022144     0.07100
C1672       C  0.90606960  0.42123381  0.90256776    -0.03000
Br1673     Br  0.92878032  0.41798489  0.93354471    -0.01500
Br1674     Br  0.92117046  0.97943939  0.92371022    -0.01600
Br1675     Br  0.85792909  0.37036968  0.83197758    -0.01600
Br1676     Br  0.85010242  0.43229866  0.82821638    -0.01500
C1677       C  0.91034858  0.18389941  0.86433912    -0.02700
C1678       C  0.92073742  0.17305882  0.88666448     0.07000
C1679       C  0.93924625  0.19434431  0.90731724    -0.02800
C1680       C  0.94294955  0.22422678  0.90784604    -0.02800
C1681       C  0.92962846  0.23371979  0.88699558     0.07100
C1682       C  0.91748147  0.21488606  0.86344022    -0.03000
Br1683     Br  0.91202992  0.23118400  0.82916252    -0.01500
Br1684     Br  0.88213331  0.15606883  0.83677031    -0.01600
Br1685     Br  0.96774444  0.25289301  0.93635098    -0.01600
Br1686     Br  0.95958004  0.18290190  0.93506818    -0.01500
C1687       C  0.51537425  0.39599809  0.00470050    -0.02700
C1688       C  0.51178892  0.37605561  0.02658493     0.07000
C1689       C  0.98633596  0.34573407  0.02648592    -0.02800
C1690       C  0.96507038  0.33502556  0.00425812    -0.02800
C1691       C  0.96956107  0.35426207  0.98107488     0.07100
C1692       C  0.49424607  0.38552626  0.98229499    -0.03000
Br1693     Br  0.50021559  0.41509908  0.95400902    -0.01500
Br1694     Br  0.55064288  0.43741733  0.00492892    -0.01600
Br1695     Br  0.92851144  0.29455455  0.00727883    -0.01600
Br1696     Br  0.98061770  0.31879057  0.05722007    -0.01500
C1697       C  0.96689806  0.43242362  0.14467768    -0.02700
C1698       C  0.96310142  0.40537524  0.13171901     0.07000
C1699       C  0.93572701  0.38668755  0.11649098    -0.02800
C1700       C  0.91224813  0.39468189  0.11469223    -0.02800
C1701       C  0.91575630  0.42085645  0.12869386     0.07100
C1702       C  0.94337516  0.43987395  0.14320801    -0.03000
Br1703     Br  0.94962361  0.47701520  0.16110241    -0.01500
Br1704     Br  0.50442291  0.46081461  0.16441046    -0.01600
Br1705     Br  0.87506017  0.36934296  0.09380140    -0.01600
Br1706     Br  0.92919676  0.34894047  0.10000081    -0.01500
C1707       C  0.72879889  0.43426224  0.09799648    -0.02700
C1708       C  0.73154980  0.41193344  0.11361344     0.07000
C1709       C  0.70767309  0.39290615  0.13194721    -0.02800
C1710       C  0.68024142  0.39435620  0.13302217    -0.02800
C1711       C  0.67580645  0.41396300  0.11462988     0.07100
C1712       C  0.70089915  0.43506510  0.09824809    -0.03000
Br1713     Br  0.69758146  0.46590161  0.07694685    -0.01500
Br1714     Br  0.76371534  0.46440383  0.07697722    -0.01600
Br1715     Br  0.64837799  0.36721297  0.15863193    -0.01600
Br1716     Br  0.71083463  0.36243710  0.15393447    -0.01500
C1717       C  0.78893837  0.22104945  0.91167242    -0.02700
C1718       C  0.81197053  0.22261637  0.89379255     0.07000
C1719       C  0.80348363  0.19986645  0.87330621    -0.02800
C1720       C  0.77283874  0.17516106  0.87151563    -0.02800
C1721       C  0.75037954  0.17239744  0.89071460     0.07100
C1722       C  0.75838268  0.19580332  0.91036000    -0.03000
Br1723     Br  0.72721492  0.19335395  0.93528139    -0.01500
Br1724     Br  0.79861226  0.25395996  0.93734145    -0.01600
Br1725     Br  0.76319605  0.14373403  0.84412103    -0.01600
Br1726     Br  0.83413202  0.20051798  0.84884700    -0.01500
C1727       C  0.54468636  0.44230982  0.88619104    -0.02700
C1728       C  0.51569483  0.43456431  0.87446089     0.07000
C1729       C  0.51086572  0.45799993  0.86353044    -0.02800
C1730       C  0.53531662  0.48840850  0.86238430    -0.02800
C1731       C  0.56648558  0.99640996  0.86349485     0.07100
C1732       C  0.56892460  0.47341228  0.88636753    -0.03000
Br1733     Br  0.60846188  0.48446626  0.90272646    -0.01500
Br1734     Br  0.55184276  0.41027082  0.90004946    -0.01600
Br1735     Br  0.53055600  0.01718158  0.83144203    -0.01600
Br1736     Br  0.97046473  0.44924614  0.85044884    -0.01500
C1737       C  0.75063598  0.04906556  0.87405140    -0.02700
C1738       C  0.74833102  0.07166433  0.88951570     0.07000
C1739       C  0.77522000  0.09536464  0.90233929    -0.02800
C1740       C  0.80392894  0.09705188  0.89916264    -0.02800
C1741       C  0.80601205  0.07334604  0.88559286     0.07100
C1742       C  0.77937920  0.04962176  0.87243609    -0.03000
Br1743     Br  0.78211045  0.01770875  0.85295135    -0.01500
Br1744     Br  0.71402679  0.01621644  0.85694440    -0.01600
Br1745     Br  0.84092596  0.13341220  0.91232989    -0.01600
Br1746     Br  0.77362305  0.12596536  0.92506305    -0.01500
C1747       C  0.49783301  0.06863421  0.89234456    -0.02700
C1748       C  0.98390069  0.07352993  0.86879996     0.07000
C1749       C  0.50384687  0.09137315  0.84695940    -0.02800
C1750       C  0.53514650  0.09860976  0.84657226    -0.02800
C1751       C  0.54721257  0.08855275  0.86798911     0.07100
C1752       C  0.52841501  0.07391840  0.89112790    -0.03000
Br1753     Br  0.54220651  0.05669582  0.91976346    -0.01500
Br1754     Br  0.97725610  0.05799327  0.92747995    -0.01600
Br1755     Br  0.56148825  0.12205699  0.81624003    -0.01600
Br1756     Br  0.98992100  0.10867567  0.81834856    -0.01500
C1757       C  0.93796332  0.06122455  0.14138536    -0.02700
C1758       C  0.92577617  0.03737026  0.12175226     0.07000
C1759       C  0.94477993  0.03889050  0.09968923    -0.02800
C1760       C  0.97651994  0.06161113  0.09928325    -0.02800
C1761       C  0.49006065  0.08185993  0.12191660     0.07100
C1762       C  0.96990226  0.08342361  0.14152607    -0.03000
Br1763     Br  0.98530055  0.11663690  0.16802482    -0.01500
Br1764     Br  0.91063511  0.06332326  0.16809982    -0.01600
Br1765     Br  0.50045723  0.06384113  0.06742285    -0.01600
Br1766     Br  0.93072939  0.51125456  0.06923517    -0.01500
C1767       C  0.70594590  0.25629175  0.08736193    -0.02700
C1768       C  0.68422750  0.24754422  0.10898294     0.07000
C1769       C  0.69361961  0.26505574  0.13364079    -0.02800
C1770       C  0.72290017  0.29206135  0.13549210    -0.02800
C1771       C  0.74152427  0.30395339  0.11178965     0.07100
C1772       C  0.73436985  0.28437365  0.08876003    -0.03000
Br1773     Br  0.76436874  0.29511090  0.05969247    -0.01500
Br1774     Br  0.69706703  0.23023499  0.05547014    -0.01600
Br1775     Br  0.73696794  0.31160810  0.17100006    -0.01600
Br1776     Br  0.66581733  0.25549242  0.16431857    -0.01500
C1777       C  0.55549277  0.25627108  0.11815641    -0.02700
C1778       C  0.58109799  0.25650260  0.10574002     0.07000
C1779       C  0.60505127  0.28392112  0.09443270    -0.02800
C1780       C  0.60301338  0.31076081  0.09441911    -0.02800
C1781       C  0.57737198  0.31098802  0.10681396     0.07100
C1782       C  0.55383295  0.28365161  0.11911068    -0.03000
Br1783     Br  0.51856619  0.28307762  0.13570791    -0.01500
Br1784     Br  0.52203910  0.21800985  0.13224605    -0.01600
Br1785     Br  0.63645697  0.34693964  0.07711033    -0.01600
Br1786     Br  0.64162852  0.28516627  0.07946542    -0.01500
C1787       C  0.57870409  0.03424944  0.10330417    -0.02700
C1788       C  0.59028866  0.05331352  0.12666942     0.07000
C1789       C  0.60335229  0.04481023  0.14840924    -0.02800
C1790       C  0.59963555  0.01503588  0.14912414    -0.02800
C1791       C  0.57358570  0.49223056  0.12709073     0.07100
C1792       C  0.57766123  0.00576090  0.10291242    -0.03000
Br1793     Br  0.52506483  0.47013298  0.08434024    -0.01500
Br1794     Br  0.55996424  0.04434161  0.07310982    -0.01600
Br1795     Br  0.61707510  0.00412153  0.17988842    -0.01600
Br1796     Br  0.62636919  0.07404511  0.17722863    -0.01500
C1797       C  0.62186384  0.10900048  0.02309549    -0.02700
C1798       C  0.60569424  0.12536858  0.02112564     0.07000
C1799       C  0.59707992  0.13103292  0.99507206    -0.02800
C1800       C  0.60580428  0.12170958  0.97108764    -0.02800
C1801       C  0.62111257  0.10443792  0.97300012     0.07100
C1802       C  0.62856606  0.09766496  0.99921283    -0.03000
Br1803     Br  0.64843050  0.07311827  0.00245420    -0.01500
Br1804     Br  0.63784180  0.10485704  0.05807101    -0.01600
Br1805     Br  0.60024918  0.13638077  0.93607776    -0.01600
Br1806     Br  0.57356745  0.15203392  0.99231428    -0.01500
C1807       C  0.92609647  0.12567786  0.73973297    -0.02700
C1808       C  0.90921229  0.10306225  0.71973891     0.07000
C1809       C  0.88174952  0.07593251  0.72695143    -0.02800
C1810       C  0.87271189  0.07026882  0.75458125    -0.02800
C1811       C  0.89228121  0.09058134  0.77507307     0.07100
C1812       C  0.91797414  0.11919327  0.76760431    -0.03000
Br1813     Br  0.94446312  0.14738485  0.79562275    -0.01500
Br1814     Br  0.96216996  0.16395226  0.72909834    -0.01600
Br1815     Br  0.83519164  0.03314456  0.76493706    -0.01600
Br1816     Br  0.85909743  0.04456589  0.69966222    -0.01500
C1817       C  0.53560365  0.14609754  0.49806101    -0.02700
C1818       C  0.52079727  0.13712209  0.47223616     0.07000
C1819       C  0.98813748  0.12175982  0.47065827    -0.02800
C1820       C  0.97040802  0.11250551  0.49487170    -0.02800
C1821       C  0.98519962  0.12212172  0.52063770     0.07100
C1822       C  0.51784710  0.14004953  0.52201682    -0.03000
Br1823     Br  0.53829606  0.15982677  0.55584533    -0.01500
Br1824     Br  0.58035598  0.16771503  0.50056474    -0.01600
Br1825     Br  0.92588408  0.08680782  0.49273989    -0.01600
Br1826     Br  0.96782325  0.11803475  0.43585703    -0.01500
C1827       C  0.62334630  0.18918880  0.26094508    -0.02700
C1828       C  0.60174201  0.19365309  0.27574994     0.07000
C1829       C  0.58083658  0.20012535  0.26150962    -0.02800
C1830       C  0.57921405  0.19845825  0.23261033    -0.02800
C1831       C  0.59797932  0.18977336  0.21822287     0.07100
C1832       C  0.62109837  0.18665961  0.23220257    -0.03000
Br1833     Br  0.64720569  0.17528583  0.21224932    -0.01500
Br1834     Br  0.65445475  0.18419114  0.28039377    -0.01600
Br1835     Br  0.54956865  0.20528869  0.21269026    -0.01600
Br1836     Br  0.55149565  0.20692500  0.28143230    -0.01500
C1837       C  0.70085751  0.12690417  0.76339314    -0.02700
C1838       C  0.69503174  0.10002372  0.77763321     0.07000
C1839       C  0.69878092  0.07732887  0.76430198    -0.02800
C1840       C  0.70278442  0.07884008  0.73564360    -0.02800
C1841       C  0.70329254  0.10327079  0.72067178     0.07100
C1842       C  0.70448127  0.12833549  0.73472046    -0.03000
Br1843     Br  0.70788856  0.16299749  0.71433948    -0.01500
Br1844     Br  0.70158577  0.16055815  0.78309803    -0.01600
Br1845     Br  0.70291062  0.04528737  0.71652933    -0.01600
Br1846     Br  0.69636909  0.04344496  0.78523244    -0.01500
C1847       C  0.78671876  0.08509827  0.63706146    -0.02700
C1848       C  0.76687323  0.07235499  0.61402669     0.07000
C1849       C  0.77501688  0.05815319  0.59326248    -0.02800
C1850       C  0.80465868  0.06108646  0.59328677    -0.02800
C1851       C  0.82625175  0.07779247  0.61439437     0.07100
C1852       C  0.81554058  0.08626144  0.63786388    -0.03000
Br1853     Br  0.83914047  0.09922332  0.67164525    -0.01500
Br1854     Br  0.77707025  0.10481638  0.66633093    -0.01600
Br1855     Br  0.81482608  0.04067678  0.56501673    -0.01600
Br1856     Br  0.74567370  0.03491504  0.56446518    -0.01500
C1857       C  0.57641834  0.08691305  0.59674313    -0.02700
C1858       C  0.59823177  0.09635983  0.61852648     0.07000
C1859       C  0.59983278  0.11865778  0.63727412    -0.02800
C1860       C  0.57572348  0.12550124  0.63825658    -0.02800
C1861       C  0.55088877  0.11163678  0.61940808     0.07100
C1862       C  0.55235104  0.09392004  0.59755624    -0.03000
Br1863     Br  0.01934034  0.07540615  0.57062290    -0.01500
Br1864     Br  0.57857438  0.06426649  0.56572535    -0.01600
Br1865     Br  0.57610137  0.15290515  0.66620270    -0.01600
Br1866     Br  0.63558071  0.14080812  0.66106370    -0.01500
C1867       C  0.64886938  0.50901886  0.47853749    -0.02700
C1868       C  0.62737780  0.47725623  0.48181773     0.07000
C1869       C  0.61788019  0.46534064  0.50855333    -0.02800
C1870       C  0.62657211  0.98761640  0.52830665    -0.02800
C1871       C  0.64574543  0.01988939  0.52516183     0.07100
C1872       C  0.65518145  0.03228166  0.49858478    -0.03000
Br1873     Br  0.68030891  0.07642560  0.49360794    -0.01500
Br1874     Br  0.66871260  0.52462283  0.44362128    -0.01600
Br1875     Br  0.61864230  0.96917519  0.56431715    -0.01600
Br1876     Br  0.58869036  0.42201712  0.51367606    -0.01500
C1877       C  0.62730167  0.06713511  0.36359005    -0.02700
C1878       C  0.61133801  0.04079633  0.38030055     0.07000
C1879       C  0.58833364  0.03871176  0.39830367    -0.02800
C1880       C  0.57804211  0.06025081  0.39654053    -0.02800
C1881       C  0.59176851  0.08512216  0.37764919     0.07100
C1882       C  0.61809793  0.08960802  0.36271488    -0.03000
Br1883     Br  0.64197814  0.12657052  0.34116153    -0.01500
Br1884     Br  0.66152007  0.07188152  0.34164892    -0.01600
Br1885     Br  0.54269594  0.05274197  0.41803560    -0.01600
Br1886     Br  0.58019456  0.51397001  0.43517289    -0.01500
C1887       C  0.58380325  0.30561205  0.36219679    -0.02700
C1888       C  0.57452055  0.31495563  0.38607505     0.07000
C1889       C  0.55829129  0.29258189  0.40665518    -0.02800
C1890       C  0.55504077  0.26296051  0.40496642    -0.02800
C1891       C  0.56949598  0.25584529  0.38362683     0.07100
C1892       C  0.58246730  0.27677837  0.36145575    -0.03000
Br1893     Br  0.60165499  0.26803995  0.33113125    -0.01500
Br1894     Br  0.59952196  0.33203476  0.33041184    -0.01600
Br1895     Br  0.53034145  0.23174217  0.43179398    -0.01600
Br1896     Br  0.53960571  0.30194410  0.43696808    -0.01500
C1897       C  0.62254794  0.42022032  0.23416810    -0.02700
C1898       C  0.59584487  0.39522480  0.22256445     0.07000
C1899       C  0.57344330  0.37230745  0.23986154    -0.02800
C1900       C  0.57598671  0.37628215  0.26863467    -0.02800
C1901       C  0.60095997  0.40316007  0.28000898     0.07100
C1902       C  0.62516936  0.42410887  0.26286900    -0.03000
Br1903     Br  0.66061740  0.45963147  0.27874024    -0.01500
Br1904     Br  0.65392322  0.45073316  0.21043795    -0.01600
Br1905     Br  0.54364348  0.34680690  0.29222400    -0.01600
Br1906     Br  0.53727936  0.33764219  0.22390362    -0.01500
C1907       C  0.87228255  0.29399467  0.73666269    -0.02700
C1908       C  0.90018226  0.30084733  0.72356599     0.07000
C1909       C  0.92479329  0.30242931  0.73925846    -0.02800
C1910       C  0.92283489  0.30067393  0.76817805    -0.02800
C1911       C  0.89585246  0.29647609  0.78141374     0.07100
C1912       C  0.87012266  0.29184142  0.76553840    -0.03000
Br1913     Br  0.83309449  0.28563366  0.78360660    -0.01500
Br1914     Br  0.83838067  0.29127366  0.71504948    -0.01600
Br1915     Br  0.95879889  0.30871176  0.78973648    -0.01600
Br1916     Br  0.96234776  0.31031286  0.72107480    -0.01500
C1917       C  0.82807513  0.21620327  0.59270761    -0.02700
C1918       C  0.82860182  0.24143719  0.60628886     0.07000
C1919       C  0.80188304  0.23653919  0.62053038    -0.02800
C1920       C  0.77492943  0.20683601  0.62093308    -0.02800
C1921       C  0.77437483  0.18206321  0.60664716     0.07100
C1922       C  0.80121181  0.18693245  0.59278817    -0.03000
Br1923     Br  0.80194611  0.15297870  0.57464665    -0.01500
Br1924     Br  0.86448395  0.22058164  0.57455013    -0.01600
Br1925     Br  0.73837112  0.20036152  0.64002199    -0.01600
Br1926     Br  0.80149754  0.27084178  0.63785873    -0.01500
C1927       C  0.52696106  0.42138494  0.65701105    -0.02700
C1928       C  0.00696807  0.41371642  0.63381247     0.07000
C1929       C  0.52023489  0.42840040  0.60846380    -0.02800
C1930       C  0.54954866  0.45545821  0.60801513    -0.02800
C1931       C  0.56751317  0.46613900  0.63236010     0.07100
C1932       C  0.55706964  0.44745374  0.65617279    -0.03000
Br1933     Br  0.58411836  0.45746196  0.68788255    -0.01500
Br1934     Br  0.51451327  0.39632022  0.68996827    -0.01600
Br1935     Br  0.55922597  0.98691237  0.57589845    -0.01600
Br1936     Br  0.99922925  0.41154578  0.57384558    -0.01500
C1937       C  0.92188532  0.20133382  0.63225518    -0.02700
C1938       C  0.93718539  0.19522896  0.61093825     0.07000
C1939       C  0.95491155  0.21896952  0.59189261    -0.02800
C1940       C  0.95468817  0.24710812  0.59250128    -0.02800
C1941       C  0.93604024  0.25149862  0.61172337     0.07100
C1942       C  0.92037924  0.22865591  0.63217654    -0.03000
Br1943     Br  0.89345681  0.23216429  0.65873940    -0.01500
Br1944     Br  0.90128523  0.17193837  0.66138418    -0.01600
Br1945     Br  0.98057037  0.27979831  0.56729887    -0.01600
Br1946     Br  0.98068412  0.21347578  0.56572020    -0.01500
C1947       C  0.95206218  0.47512639  0.63437047    -0.02700
C1948       C  0.92160172  0.45072971  0.62912175     0.07000
C1949       C  0.89780442  0.45780160  0.62424603    -0.02800
C1950       C  0.90466509  0.48894419  0.62482156    -0.02800
C1951       C  0.93840367  0.01402359  0.62816111     0.07100
C1952       C  0.95822373  0.50546078  0.63687645    -0.03000
Br1953     Br  0.00094682  0.03765250  0.64958218    -0.01500
Br1954     Br  0.98656693  0.46803430  0.63757348    -0.01600
Br1955     Br  0.87232798  0.49885772  0.61918709    -0.01600
Br1956     Br  0.85569129  0.42503215  0.61879240    -0.01500
C1957       C  0.80456730  0.36492689  0.26372032    -0.02700
C1958       C  0.79917556  0.38496882  0.28003137     0.07000
C1959       C  0.78859216  0.40342076  0.26756127    -0.02800
C1960       C  0.78783512  0.40519598  0.23867711    -0.02800
C1961       C  0.79717418  0.38812024  0.22240084     0.07100
C1962       C  0.80361467  0.36654842  0.23488917    -0.03000
Br1963     Br  0.81538937  0.34250243  0.21240541    -0.01500
Br1964     Br  0.81706570  0.33803695  0.28095589    -0.01600
Br1965     Br  0.77869342  0.43448718  0.22139205    -0.01600
Br1966     Br  0.77949581  0.42944736  0.28997000    -0.01500
C1967       C  0.86859822  0.37832145  0.52895820    -0.02700
C1968       C  0.89603463  0.37689776  0.52777965     0.07000
C1969       C  0.91427275  0.38687531  0.50398328    -0.02800
C1970       C  0.90441007  0.39686287  0.48080307    -0.02800
C1971       C  0.87487868  0.39499305  0.48062703     0.07100
C1972       C  0.85801699  0.38735593  0.50566072    -0.03000
Br1973     Br  0.82137192  0.39102459  0.50936540    -0.01500
Br1974     Br  0.84521898  0.36719230  0.56270108    -0.01600
Br1975     Br  0.93272309  0.41363126  0.45033503    -0.01600
Br1976     Br  0.95252068  0.38586345  0.50309400    -0.01500
C1977       C  0.92135666  0.01589364  0.33983796    -0.02700
C1978       C  0.91389234  0.49811617  0.37152050     0.07000
C1979       C  0.92618412  0.01151087  0.38915494    -0.02800
C1980       C  0.95341051  0.04067572  0.38956318    -0.02800
C1981       C  0.96531555  0.05765116  0.36490962     0.07100
C1982       C  0.94745064  0.04604629  0.34053056    -0.03000
Br1983     Br  0.95815554  0.07158353  0.30787662    -0.01500
Br1984     Br  0.89799920  0.00161853  0.30586182    -0.01600
Br1985     Br  0.47521967  0.05473551  0.42406413    -0.01600
Br1986     Br  0.91755865  0.48960388  0.43125578    -0.01500
C1987       C  0.71290692  0.31602212  0.40654887    -0.02700
C1988       C  0.73966032  0.31627691  0.39653858     0.07000
C1989       C  0.73637916  0.28972628  0.38333989    -0.02800
C1990       C  0.70664364  0.26312603  0.38048734    -0.02800
C1991       C  0.68025470  0.26306090  0.39090005     0.07100
C1992       C  0.68352906  0.28981223  0.40338827    -0.03000
Br1993     Br  0.64734572  0.29129111  0.41534836    -0.01500
Br1994     Br  0.71532919  0.35167213  0.42418977    -0.01600
Br1995     Br  0.70200166  0.22663841  0.36296101    -0.00400
Br1996     Br  0.77270086  0.28911175  0.37089364    -0.01500
C1997       C  0.97414452  0.44525074  0.36840597    -0.02700
C1998       C  0.95025752  0.41578048  0.37712349     0.07000
C1999       C  0.95835954  0.39427326  0.38743729    -0.02800
C2000       C  0.98980201  0.40172707  0.38763320    -0.02800
C2001       C  0.51307479  0.43059346  0.37765152     0.07100
C2002       C  0.00513236  0.45247728  0.36875820    -0.03000
Br2003     Br  0.53670672  0.49283461  0.35641271    -0.01500
Br2004     Br  0.96563012  0.47686197  0.35551410    -0.01600
Br2005     Br  0.00090494  0.37199443  0.40018091    -0.01600
Br2006     Br  0.92657393  0.35396306  0.39946358    -0.01500
C2007       C  0.72340053  0.40756182  0.36735844    -0.02700
C2008       C  0.74596432  0.42235638  0.38837155     0.07000
C2009       C  0.74227922  0.44192417  0.40695768    -0.02800
C2010       C  0.71452015  0.44300733  0.40703993    -0.02800
C2011       C  0.69092111  0.42601719  0.38752229     0.07100
C2012       C  0.69742865  0.41157544  0.36577018    -0.03000
Br2013     Br  0.67179723  0.39760309  0.33319520    -0.01500
Br2014     Br  0.72450197  0.37782570  0.34278990    -0.01600
Br2015     Br  0.70951866  0.46909545  0.43318013    -0.01600
Br2016     Br  0.77508992  0.46756993  0.43238800    -0.01500
O2017       O  0.84227416  0.90289883  0.30437426    -0.81700
O2018       O  0.88325580  0.91517841  0.43043522    -0.66400
O2019       O  0.84774188  0.89024914  0.35877289    -1.13000
C2020       C  0.77431535  0.91575114  0.39357088     1.05200
O2021       O  0.83753373  0.88635035  0.45042200    -0.79600
O2022       O  0.78532916  0.85627591  0.41923779    -0.67200
Ni2023     Ni  0.87544477  0.91004637  0.32859575     1.34900
C2024       C  0.77343388  0.84623042  0.39572200     0.83900
O2025       O  0.89949100  0.89434494  0.38741503    -0.80200
O2026       O  0.91297305  0.91817854  0.34729380    -0.90400
C2027       C  0.86705762  0.89964050  0.45075625     0.83500
O2028       O  0.88123358  0.94925199  0.33960899    -0.68600
O2029       O  0.78042906  0.90826711  0.41697459    -0.87900
C2030       C  0.89376364  0.96238357  0.36223687     0.84300
C2031       C  0.91952457  0.90810648  0.36877557     1.05900
H2032       H  0.84480527  0.93584226  0.40178216     0.37700
O2033       O  0.83542804  0.91372935  0.40017181    -1.10600
O2034       O  0.78470446  0.86159114  0.37366047    -0.67200
Ni2035     Ni  0.81735215  0.90309669  0.36456639     1.26300
O2036       O  0.89379695  0.94656867  0.38302132    -0.67500
O2037       O  0.78905822  0.91741783  0.37174058    -0.79800
C2038       C  0.81393978  0.89532654  0.30573385     0.83700
O2039       O  0.80027028  0.89319988  0.32817883    -0.66900
Ni2040     Ni  0.81008755  0.89768526  0.43187369     1.27400
Ni2041     Ni  0.86700280  0.90367550  0.39413947     1.26100
H2042       H  0.83790148  0.86806548  0.35726483     0.38200
O2043       O  0.91911676  0.84486675  0.69518442    -0.81700
O2044       O  0.92359275  0.88156170  0.56825054    -0.66400
O2045       O  0.90053265  0.84841750  0.64118783    -1.13000
C2046       C  0.92783600  0.77583108  0.60737402     1.05200
O2047       O  0.89495264  0.83532764  0.55009057    -0.79600
O2048       O  0.86769110  0.78228059  0.58008352    -0.67200
Ni2049     Ni  0.92225541  0.87641928  0.67087975     1.34900
C2050       C  0.85625174  0.77227573  0.60368720     0.83900
O2051       O  0.90361154  0.89897154  0.61167810    -0.80200
O2052       O  0.92678576  0.91234539  0.65235878    -0.90400
C2053       C  0.90883393  0.86465893  0.54792959     0.83500
O2054       O  0.96173668  0.88399836  0.65789135    -0.68600
O2055       O  0.92223449  0.78244644  0.58333594    -0.87900
C2056       C  0.97335349  0.89566103  0.63465061     0.84300
C2057       C  0.91687554  0.91877588  0.63068252     1.05900
H2058       H  0.94581400  0.84479734  0.59898428     0.37700
O2059       O  0.92351292  0.83523335  0.60002136    -1.10600
O2060       O  0.87031100  0.78544742  0.62596562    -0.67200
Ni2061     Ni  0.91232997  0.81753351  0.63561683     1.26300
O2062       O  0.95607745  0.89426354  0.61459629    -0.67500
O2063       O  0.92653186  0.78920379  0.62906577    -0.79800
C2064       C  0.90786138  0.81592952  0.69437420     0.83700
O2065       O  0.90141563  0.80091364  0.67208722    -0.66900
Ni2066     Ni  0.90900573  0.80993628  0.56826539     1.27400
Ni2067     Ni  0.91293600  0.86652916  0.60517178     1.26100
H2068       H  0.87834871  0.83907029  0.64338134     0.38200
O2069       O  0.59649676  0.93428217  0.30670289    -0.81700
O2070       O  0.60067768  0.96296641  0.43509388    -0.66400
O2071       O  0.61734605  0.95219741  0.36075552    -1.13000
C2072       C  0.58656596  0.84982877  0.39106902     1.05200
O2073       O  0.62539726  0.94016081  0.45250259    -0.79600
O2074       O  0.65037000  0.91663267  0.41738553    -0.67200
Ni2075     Ni  0.59994745  0.96515944  0.33180925     1.34900
C2076       C  0.66071027  0.92019443  0.39306711     0.83900
O2077       O  0.62195756  0.00093826  0.39308147    -0.80200
O2078       O  0.60260124  0.99955949  0.35161118    -0.90400
C2079       C  0.61631478  0.95981744  0.45418488     0.83500
O2080       O  0.55843597  0.93895803  0.34412476    -0.68600
O2081       O  0.59555007  0.86197005  0.41485791    -0.87900
C2082       C  0.54808985  0.93837298  0.36808706     0.84300
C2083       C  0.61165828  0.51187022  0.37906875     1.05900
H2084       H  0.57167995  0.90404791  0.40398044     0.37700
O2085       O  0.59393435  0.91506889  0.40174032    -1.10600
O2086       O  0.64406546  0.91726042  0.37203407    -0.67200
Ni2087     Ni  0.60211659  0.90851424  0.36492928     1.26300
O2088       O  0.56536317  0.94748383  0.38956253    -0.67500
O2089       O  0.58610167  0.86511157  0.37024271    -0.79800
C2090       C  0.60353940  0.91322679  0.30608931     0.83700
O2091       O  0.60954649  0.90257035  0.32748201    -0.66900
Ni2092     Ni  0.60983321  0.90196299  0.43169920     1.27400
Ni2093     Ni  0.60801334  0.95798888  0.39761263     1.26100
H2094       H  0.63961827  0.96318132  0.35856450     0.38200
O2095       O  0.66224750  0.58958376  0.68765297    -0.81700
O2096       O  0.63809846  0.53923594  0.56777527    -0.66400
O2097       O  0.66127936  0.55592328  0.64317772    -1.13000
C2098       C  0.74287296  0.65168329  0.60641111     1.05200
O2099       O  0.68693365  0.55649061  0.55598115    -0.79600
O2100       O  0.73737109  0.58968631  0.58798239    -0.67200
Ni2101     Ni  0.63222287  0.55188142  0.67030917     1.34900
C2102       C  0.73954240  0.58022380  0.61165309     0.83900
O2103       O  0.61482873  0.00891544  0.61210143    -0.80200
O2104       O  0.60134932  0.01568978  0.65425180    -0.90400
C2105       C  0.65797846  0.53887593  0.55177288     0.83500
O2106       O  0.61723929  0.57468888  0.65112653    -0.68600
O2107       O  0.73154957  0.64025068  0.58281988    -0.87900
C2108       C  0.61147318  0.57607201  0.62595055     0.84300
C2109       C  0.59647054  0.99962489  0.63254985     1.05900
H2110       H  0.67205047  0.60236205  0.59764393     0.37700
O2111       O  0.68084196  0.58918268  0.60033288    -1.10600
O2112       O  0.72176394  0.57749276  0.63139660    -0.67200
Ni2113     Ni  0.69661959  0.59621059  0.63696231     1.26300
O2114       O  0.61941299  0.56373311  0.60717983    -0.67500
O2115       O  0.73223344  0.63683260  0.62906804    -0.79800
C2116       C  0.68963592  0.59607123  0.69376828     0.83700
O2117       O  0.70897737  0.60029026  0.67498538    -0.66900
Ni2118     Ni  0.70815871  0.59813964  0.57050632     1.27400
Ni2119     Ni  0.64784274  0.54773437  0.60602665     1.26100
H2120       H  0.66843643  0.54187079  0.64834177     0.38200
O2121       O  0.58677410  0.65506188  0.31226220    -0.81700
O2122       O  0.54248307  0.63055132  0.43463374    -0.66400
O2123       O  0.55470294  0.65300827  0.35913462    -1.13000
C2124       C  0.65174146  0.73513963  0.39326052     1.05200
O2125       O  0.55889063  0.67907788  0.44627530    -0.79600
O2126       O  0.59064547  0.72985704  0.41439381    -0.67200
Ni2127     Ni  0.55091712  0.62417521  0.33194995     1.34900
C2128       C  0.57988913  0.73184542  0.39123850     0.83900
O2129       O  0.50747373  0.60633804  0.38978269    -0.80200
O2130       O  0.51381386  0.59082903  0.34845537    -0.90400
C2131       C  0.54247934  0.65024825  0.45093432     0.83500
O2132       O  0.57650783  0.61123189  0.35020291    -0.68600
O2133       O  0.64160414  0.72376774  0.41707178    -0.87900
C2134       C  0.57815911  0.60492171  0.37525745     0.84300
C2135       C  0.99781482  0.58706403  0.37005505     1.05900
H2136       H  0.60384873  0.66513512  0.40262064     0.37700
O2137       O  0.59005489  0.67336839  0.40082869    -1.10600
O2138       O  0.57566285  0.71352450  0.37148691    -0.67200
Ni2139     Ni  0.59483993  0.68887288  0.36445952     1.26300
O2140       O  0.56537675  0.61213038  0.39419399    -0.67500
O2141       O  0.63559174  0.72471852  0.37116777    -0.79800
C2142       C  0.59364474  0.68280953  0.30750697     0.83700
O2143       O  0.59695501  0.70102183  0.32692558    -0.66900
Ni2144     Ni  0.59999836  0.70063405  0.43069811     1.27400
Ni2145     Ni  0.54862019  0.63985731  0.39634198     1.26100
H2146       H  0.53985505  0.65942034  0.35458059     0.38200
O2147       O  0.93995987  0.59367092  0.69431969    -0.81700
O2148       O  0.96670504  0.59688183  0.56595834    -0.66400
O2149       O  0.96005052  0.61583479  0.64052301    -1.13000
C2150       C  0.85804726  0.58922293  0.61148044     1.05200
O2151       O  0.94773498  0.62574893  0.55043936    -0.79600
O2152       O  0.92378259  0.65087789  0.58440761    -0.67200
Ni2153     Ni  0.97171208  0.59757052  0.66955040     1.34900
C2154       C  0.93019744  0.66213794  0.60842091     0.83900
O2155       O  0.00603983  0.61680855  0.60706519    -0.80200
O2156       O  0.00632394  0.60035147  0.64953574    -0.90400
C2157       C  0.96517788  0.61413338  0.54764023     0.83500
O2158       O  0.94521599  0.55627540  0.65729137    -0.68600
O2159       O  0.86927029  0.59635275  0.58725018    -0.87900
C2160       C  0.94325151  0.54552599  0.63330866     0.84300
C2161       C  0.51838962  0.60914096  0.62588819     1.05900
H2162       H  0.90900927  0.57156394  0.59867551     0.37700
O2163       O  0.92136455  0.59373337  0.60038099    -1.10600
O2164       O  0.92907941  0.64631907  0.62938545    -0.67200
Ni2165     Ni  0.91708582  0.60385873  0.63700514     1.26300
O2166       O  0.95144874  0.56229807  0.61162168    -0.67500
O2167       O  0.87417343  0.59073069  0.63240139    -0.79800
C2168       C  0.92095843  0.60355070  0.69518800     0.83700
O2169       O  0.91313382  0.61305654  0.67418217    -0.66900
Ni2170     Ni  0.90915740  0.61039415  0.57046970     1.27400
Ni2171     Ni  0.96370038  0.60517205  0.60355839     1.26100
H2172       H  0.97255198  0.63797530  0.64242250     0.38200
O2173       O  0.56462015  0.65120996  0.18888485    -0.81700
O2174       O  0.57908030  0.62432401  0.06541551    -0.66400
O2175       O  0.59342531  0.64888957  0.14064514    -1.13000
C2176       C  0.58119376  0.73208409  0.10662341     1.05200
O2177       O  0.61325902  0.67185030  0.05221496    -0.79600
O2178       O  0.63712621  0.72341583  0.08459216    -0.67200
Ni2179     Ni  0.57020403  0.62082136  0.16945204     1.34900
C2180       C  0.64879473  0.72633331  0.10845259     0.83900
O2181       O  0.58969707  0.60022354  0.10996684    -0.80200
O2182       O  0.57400038  0.58752418  0.15353934    -0.90400
C2183       C  0.59910949  0.64271958  0.04832730     0.83500
O2184       O  0.53062030  0.60619126  0.15285258    -0.68600
O2185       O  0.58253576  0.72267437  0.08252701    -0.87900
C2186       C  0.52106685  0.60117078  0.12815978     0.84300
C2187       C  0.58245089  0.58218031  0.13050300     1.05900
H2188       H  0.55649683  0.66194828  0.09673716     0.37700
O2189       O  0.57843376  0.66939442  0.09881259    -1.10600
O2190       O  0.63321203  0.70953391  0.12862114    -0.67200
Ni2191     Ni  0.58915702  0.68456561  0.13530591     1.26300
O2192       O  0.53970304  0.60905261  0.10792703    -0.67500
O2193       O  0.58413754  0.71990907  0.12878530    -0.79800
C2194       C  0.58483358  0.67939657  0.19263932     0.83700
O2195       O  0.59925474  0.69703732  0.17269022    -0.66900
Ni2196     Ni  0.59729824  0.69640693  0.06865978     1.27400
Ni2197     Ni  0.58435137  0.63487061  0.10361952     1.26100
H2198       H  0.61499818  0.65550806  0.14412345     0.38200
O2199       O  0.64448046  0.57107209  0.80956707    -0.81700
O2200       O  0.61803755  0.58293698  0.93504581    -0.66400
O2201       O  0.64488372  0.59781461  0.86049553    -1.13000
C2202       C  0.72173751  0.57534565  0.89521721     1.05200
O2203       O  0.66618475  0.61232164  0.94999323    -0.79600
O2204       O  0.71752103  0.63263891  0.91806828    -0.67200
Ni2205     Ni  0.61602260  0.57775029  0.83127310     1.34900
C2206       C  0.72297000  0.64414007  0.89405085     0.83900
O2207       O  0.59868480  0.60036081  0.89145411    -0.80200
O2208       O  0.58412391  0.58287539  0.84873129    -0.90400
C2209       C  0.63706277  0.60088880  0.95290423     0.83500
O2210       O  0.59941665  0.53746671  0.84635832    -0.68600
O2211       O  0.71180711  0.57613305  0.91917764    -0.87900
C2212       C  0.58981547  0.52835647  0.87058506     0.84300
C2213       C  0.57955186  0.59231215  0.87156107     1.05900
H2214       H  0.65050610  0.55548157  0.90384156     0.37700
O2215       O  0.66065235  0.57765885  0.90219458    -1.10600
O2216       O  0.70621679  0.63042377  0.87328382    -0.67200
Ni2217     Ni  0.67705102  0.58782304  0.86599885     1.26300
O2218       O  0.59865793  0.54618999  0.89139070    -0.67500
O2219       O  0.70956324  0.57831481  0.87299826    -0.79800
C2220       C  0.67393088  0.58621356  0.80798810     0.83700
O2221       O  0.69116179  0.59759270  0.82896419    -0.66900
Ni2222     Ni  0.68779793  0.59352992  0.93305625     1.27400
Ni2223     Ni  0.62975950  0.58913146  0.89735077     1.26100
H2224       H  0.65412737  0.61976293  0.85747781     0.38200
O2225       O  0.56411950  0.90832548  0.19507076    -0.81700
O2226       O  0.52724206  0.90609060  0.06838339    -0.66400
O2227       O  0.54073609  0.88842516  0.14220598    -1.13000
C2228       C  0.64021477  0.91392633  0.10640251     1.05200
O2229       O  0.54632824  0.87816023  0.05107214    -0.79600
O2230       O  0.57572235  0.85514424  0.08128355    -0.67200
Ni2231     Ni  0.53587244  0.91195642  0.17067744     1.34900
C2232       C  0.57291505  0.84359445  0.10507010     0.83900
O2233       O  0.49228781  0.89034788  0.11321525    -0.80200
O2234       O  0.50501701  0.91748260  0.15171036    -0.90400
C2235       C  0.52821153  0.88914397  0.04955641     0.83500
O2236       O  0.56861358  0.94938542  0.15554725    -0.68600
O2237       O  0.62838051  0.91045928  0.08233396    -0.87900
C2238       C  0.56755574  0.95992912  0.13198958     0.84300
C2239       C  0.98734020  0.90591463  0.13097623     1.05900
H2240       H  0.58838358  0.93115641  0.09831868     0.37700
O2241       O  0.57566632  0.90901344  0.09985675    -1.10600
O2242       O  0.57191898  0.85694574  0.12705743    -0.67200
Ni2243     Ni  0.58325270  0.89920415  0.13569000     1.26300
O2244       O  0.54989112  0.94208707  0.11307694    -0.67500
O2245       O  0.62548641  0.91169019  0.12834633    -0.79800
C2246       C  0.58232665  0.89756752  0.19453984     0.83700
O2247       O  0.59023041  0.89004039  0.17248564    -0.66900
Ni2248     Ni  0.58677047  0.89504617  0.06816761     1.27400
Ni2249     Ni  0.53370322  0.89865716  0.10579867     1.26100
H2250       H  0.52774496  0.86656834  0.14563267     0.38200
O2251       O  0.90129780  0.82877091  0.81431111    -0.81700
O2252       O  0.94808452  0.86057273  0.93389669    -0.66400
O2253       O  0.93846136  0.83439354  0.85909822    -1.13000
C2254       C  0.84541736  0.75006273  0.89422375     1.05200
O2255       O  0.93920906  0.81473179  0.94734760    -0.79600
O2256       O  0.91371123  0.76224659  0.91607117    -0.67200
Ni2257     Ni  0.93982268  0.86006482  0.82955316     1.34900
C2258       C  0.92207886  0.75951968  0.89213373     0.83900
O2259       O  0.98197242  0.88678096  0.88826185    -0.80200
O2260       O  0.97830362  0.89324999  0.84272261    -0.90400
C2261       C  0.95064670  0.84352794  0.95195486     0.83500
O2262       O  0.91776818  0.87744836  0.84642352    -0.68600
O2263       O  0.85720262  0.75852797  0.91829565    -0.87900
C2264       C  0.91283502  0.88149170  0.87115892     0.84300
C2265       C  0.49153325  0.90253746  0.86605285     1.05900
H2266       H  0.88872584  0.81883412  0.90327210     0.37700
O2267       O  0.90432787  0.81294739  0.90115360    -1.10600
O2268       O  0.92051812  0.77452469  0.87160684    -0.67200
Ni2269     Ni  0.89960948  0.79758488  0.86483405     1.26300
O2270       O  0.92159679  0.87161891  0.89139913    -0.67500
O2271       O  0.86010228  0.76199204  0.87196812    -0.79800
C2272       C  0.89713497  0.80246391  0.80826285     0.83700
O2273       O  0.89663608  0.78478965  0.82721664    -0.66900
Ni2274     Ni  0.89850496  0.78710533  0.93165054     1.27400
Ni2275     Ni  0.94350114  0.84933373  0.89580886     1.26100
H2276       H  0.95429178  0.82905347  0.85574139     0.38200
O2277       O  0.83479300  0.92697260  0.19400483    -0.81700
O2278       O  0.85869338  0.95723026  0.06645040    -0.66400
O2279       O  0.83193110  0.94723226  0.14083817    -1.13000
C2280       C  0.76178513  0.84327103  0.11111196     1.05200
O2281       O  0.81051334  0.93335610  0.05023047    -0.79600
O2282       O  0.76042495  0.90464495  0.08321614    -0.67200
Ni2283     Ni  0.86206802  0.95971459  0.16981878     1.34900
C2284       C  0.75502539  0.91178048  0.10667967     0.83900
O2285       O  0.87581775  0.99598776  0.10829622    -0.80200
O2286       O  0.89327501  0.99539495  0.15037639    -0.90400
C2287       C  0.83925176  0.95297563  0.04762992     0.83500
O2288       O  0.87898219  0.93528214  0.15705806    -0.68600
O2289       O  0.76743554  0.85420560  0.08671100    -0.87900
C2290       C  0.88850693  0.93484576  0.13298885     0.84300
C2291       C  0.89740102  0.50168936  0.12738377     1.05900
H2292       H  0.83005718  0.89882511  0.09968733     0.37700
O2293       O  0.81833648  0.90960410  0.10072008    -1.10600
O2294       O  0.77063784  0.91353398  0.12810540    -0.67200
Ni2295     Ni  0.80254026  0.90380231  0.13700576     1.26300
O2296       O  0.87980578  0.94352558  0.11166483    -0.67500
O2297       O  0.77393607  0.86023940  0.13223078    -0.79800
C2298       C  0.80583935  0.90789310  0.19501026     0.83700
O2299       O  0.78839430  0.89929703  0.17398519    -0.66900
Ni2300     Ni  0.79027847  0.89461253  0.07017835     1.27400
Ni2301     Ni  0.84693093  0.95279214  0.10403803     1.26100
H2302       H  0.82105341  0.95852278  0.14297555     0.38200
O2303       O  0.90073611  0.55777899  0.80647592    -0.81700
O2304       O  0.89504478  0.52714235  0.93430763    -0.66400
O2305       O  0.88036788  0.53968617  0.85966549    -1.13000
C2306       C  0.91336851  0.64180436  0.89219250     1.05200
O2307       O  0.86830746  0.54840439  0.94938145    -0.79600
O2308       O  0.84897076  0.57858525  0.91621369    -0.67200
Ni2309     Ni  0.90099430  0.52898741  0.83237416     1.34900
C2310       C  0.83858438  0.57620410  0.89195852     0.83900
O2311       O  0.87408976  0.98870645  0.88731674    -0.80200
O2312       O  0.89876442  0.99378776  0.84827990    -0.90400
C2313       C  0.87794738  0.52931907  0.95227280     0.83500
O2314       O  0.94070700  0.55907757  0.84614701    -0.68600
O2315       O  0.90607387  0.62968344  0.91618147    -0.87900
C2316       C  0.95109518  0.55978394  0.87025778     0.84300
C2317       C  0.88530903  0.97859326  0.86974220     1.05900
H2318       H  0.92506272  0.58691200  0.90355093     0.37700
O2319       O  0.90279853  0.57576408  0.90117553    -1.10600
O2320       O  0.85319529  0.57563454  0.87071803    -0.67200
Ni2321     Ni  0.89505616  0.58321452  0.86448714     1.26300
O2322       O  0.93254812  0.54531008  0.89009331    -0.67500
O2323       O  0.91115385  0.62636054  0.87069250    -0.79800
C2324       C  0.89385176  0.57898819  0.80568413     0.83700
O2325       O  0.88837433  0.58998209  0.82694760    -0.66900
Ni2326     Ni  0.88795259  0.58842396  0.93133552     1.27400
Ni2327     Ni  0.88904296  0.53318800  0.89658069     1.26100
H2328       H  0.85823712  0.52840000  0.85637992     0.38200
C2329       C  0.86195526  0.50181874  0.02648765    -0.02700
C2330       C  0.84977005  0.97214599  0.02246272     0.07000
C2331       C  0.84598937  0.95807111  0.99668340    -0.02800
C2332       C  0.85358189  0.97590214  0.97248540    -0.02800
C2333       C  0.86815822  0.50876271  0.97675841     0.07100
C2334       C  0.87212661  0.52137170  0.00334483    -0.03000
Br2335     Br  0.89114445  0.56542205  0.00835283    -0.01500
Br2336     Br  0.85980831  0.51837003  0.06148843    -0.01600
Br2337     Br  0.83979693  0.95486113  0.93788414    -0.01600
Br2338     Br  0.83001336  0.91412717  0.99450381    -0.01500
C2339       C  0.90303563  0.94741833  0.89643154    -0.02700
C2340       C  0.88501623  0.94929931  0.87486870     0.07000
C2341       C  0.87036150  0.92476200  0.85608834    -0.02800
C2342       C  0.87648666  0.90020653  0.85701275    -0.02800
C2343       C  0.89828852  0.90069965  0.87613628     0.07100
C2344       C  0.90980931  0.92332074  0.89712748    -0.03000
Br2345     Br  0.93744643  0.92396599  0.92560535    -0.01500
Br2346     Br  0.91632599  0.47606913  0.93110915    -0.01600
Br2347     Br  0.85483703  0.86589158  0.83203762    -0.01600
Br2348     Br  0.84231097  0.92520013  0.82878887    -0.01500
C2349       C  0.91478261  0.68610437  0.86547934    -0.02700
C2350       C  0.92339900  0.67528140  0.88908454     0.07000
C2351       C  0.93999720  0.69655993  0.91037849    -0.02800
C2352       C  0.94305298  0.72616187  0.91014995    -0.02800
C2353       C  0.93104445  0.73540687  0.88798680     0.07100
C2354       C  0.92124410  0.71686058  0.86413368    -0.03000
Br2355     Br  0.91710562  0.73294202  0.82915907    -0.01500
Br2356     Br  0.88976748  0.65860514  0.83625855    -0.01600
Br2357     Br  0.96504359  0.75469760  0.93965826    -0.01600
Br2358     Br  0.95872421  0.68561194  0.94000962    -0.01500
C2359       C  0.51398079  0.89825761  0.00242544    -0.02700
C2360       C  0.50636516  0.87970530  0.02605721     0.07000
C2361       C  0.97920805  0.85059838  0.02633713    -0.02800
C2362       C  0.96031745  0.83936986  0.00263679    -0.02800
C2363       C  0.96859647  0.85721837  0.97808451     0.07100
C2364       C  0.49497580  0.88749924  0.97873110    -0.03000
Br2365     Br  0.50667315  0.91488335  0.94754035    -0.01500
Br2366     Br  0.55176284  0.93786172  0.00218290    -0.01600
Br2367     Br  0.92241087  0.79990891  0.00490626    -0.01600
Br2368     Br  0.96846031  0.82580463  0.05936752    -0.01500
C2369       C  0.96804918  0.94329423  0.13489629    -0.02700
C2370       C  0.96197007  0.91334673  0.12766102     0.07000
C2371       C  0.93140783  0.89086928  0.11997675    -0.02800
C2372       C  0.90721242  0.89791429  0.12096003    -0.02800
C2373       C  0.91331535  0.92708486  0.13020323     0.07100
C2374       C  0.94378821  0.94963359  0.13717612    -0.03000
Br2375     Br  0.95261934  0.98943930  0.15074634    -0.01500
Br2376     Br  0.50976212  0.97705716  0.14052892    -0.01600
Br2377     Br  0.86545326  0.86722347  0.11102250    -0.01600
Br2378     Br  0.92210159  0.85009107  0.10937198    -0.01500
C2379       C  0.72333243  0.93521944  0.09013590    -0.02700
C2380       C  0.72808655  0.91662506  0.10925742     0.07000
C2381       C  0.70532914  0.90013360  0.12935804    -0.02800
C2382       C  0.67705909  0.90002087  0.12893757    -0.02800
C2383       C  0.67177952  0.91788163  0.10921551     0.07100
C2384       C  0.69561828  0.93640454  0.09054593    -0.03000
Br2385     Br  0.69080908  0.96408954  0.06591959    -0.01500
Br2386     Br  0.75493721  0.95945234  0.06344536    -0.01600
Br2387     Br  0.64465564  0.87207109  0.15374453    -0.01600
Br2388     Br  0.71127843  0.87530400  0.15648029    -0.01500
C2389       C  0.78875031  0.72581249  0.90531264    -0.02700
C2390       C  0.81305131  0.72449399  0.89182395     0.07000
C2391       C  0.80636199  0.69850241  0.87585342    -0.02800
C2392       C  0.77581997  0.67371305  0.87393867    -0.02800
C2393       C  0.75214449  0.67356549  0.88989947     0.07100
C2394       C  0.75858980  0.69988359  0.90525662    -0.03000
Br2395     Br  0.72599186  0.70025103  0.92609414    -0.01500
Br2396     Br  0.79641179  0.76350940  0.92271239    -0.01600
Br2397     Br  0.76747603  0.63936563  0.85053769    -0.01600
Br2398     Br  0.83939085  0.69534882  0.85852998    -0.01500
C2399       C  0.54684552  0.94300521  0.87811065    -0.02700
C2400       C  0.51748081  0.93475947  0.86689663     0.07000
C2401       C  0.51265321  0.95772614  0.85474271    -0.02800
C2402       C  0.53732785  0.98790244  0.85187684    -0.02800
C2403       C  0.56445274  0.49629600  0.87370286     0.07100
C2404       C  0.57110887  0.97408116  0.87708192    -0.03000
Br2405     Br  0.61099588  0.98586311  0.89307644    -0.01500
Br2406     Br  0.55447752  0.91177399  0.89323765    -0.01600
Br2407     Br  0.52830236  0.51896263  0.84462671    -0.01600
Br2408     Br  0.97177238  0.94885907  0.84299815    -0.01500
C2409       C  0.75449900  0.55411204  0.87568469    -0.02700
C2410       C  0.75112624  0.57447655  0.89349433     0.07000
C2411       C  0.77740924  0.59695073  0.90810261    -0.02800
C2412       C  0.80632059  0.59903644  0.90486547    -0.02800
C2413       C  0.80908251  0.57676371  0.88940084     0.07100
C2414       C  0.78331559  0.55490635  0.87398637    -0.03000
Br2415     Br  0.78731498  0.52601286  0.85087119    -0.01500
Br2416     Br  0.71930798  0.52407409  0.85479503    -0.01600
Br2417     Br  0.84285493  0.63451942  0.91995592    -0.01600
Br2418     Br  0.77504277  0.62614943  0.93240699    -0.01500
C2419       C  0.49920841  0.57040699  0.89830043    -0.02700
C2420       C  0.98587942  0.57576340  0.87446099     0.07000
C2421       C  0.50647037  0.59460165  0.85338077    -0.02800
C2422       C  0.53787322  0.60221160  0.85368957    -0.02800
C2423       C  0.54946316  0.59167456  0.87507203     0.07100
C2424       C  0.53036403  0.57708474  0.89809365    -0.03000
Br2425     Br  0.54531639  0.56312333  0.92855435    -0.01500
Br2426     Br  0.97639336  0.55568945  0.93225319    -0.01600
Br2427     Br  0.56536229  0.62740388  0.82465224    -0.01600
Br2428     Br  0.99314816  0.61227438  0.82461429    -0.01500
C2429       C  0.93543536  0.55402405  0.14512235    -0.02700
C2430       C  0.92519702  0.53257935  0.12342714     0.07000
C2431       C  0.94380078  0.53953355  0.09974974    -0.02800
C2432       C  0.97362409  0.56599084  0.09919882    -0.02800
C2433       C  0.48656727  0.58318747  0.12357656     0.07100
C2434       C  0.96604738  0.57912132  0.14540811    -0.03000
Br2435     Br  0.97877207  0.60828315  0.17541308    -0.01500
Br2436     Br  0.90743801  0.54860282  0.17472591    -0.01600
Br2437     Br  0.49503298  0.57903257  0.06449329    -0.01600
Br2438     Br  0.92880460  0.00777863  0.07139141    -0.01500
C2439       C  0.70376611  0.76000614  0.09182881    -0.02700
C2440       C  0.68151590  0.75189684  0.11285315     0.07000
C2441       C  0.68998078  0.77071585  0.13662793    -0.02800
C2442       C  0.71884538  0.79843829  0.13801256    -0.02800
C2443       C  0.73819487  0.80950045  0.11455003     0.07100
C2444       C  0.73179818  0.78861283  0.09258838    -0.03000
Br2445     Br  0.76222241  0.79799370  0.06416922    -0.01500
Br2446     Br  0.69608928  0.73186390  0.06181734    -0.01600
Br2447     Br  0.73139677  0.81978392  0.17279112    -0.01600
Br2448     Br  0.66127712  0.76122413  0.16657754    -0.01500
C2449       C  0.55484034  0.76152115  0.12260890    -0.02700
C2450       C  0.57888958  0.76044433  0.10830571     0.07000
C2451       C  0.60148397  0.78703159  0.09462742    -0.02800
C2452       C  0.59879786  0.81353549  0.09313543    -0.02800
C2453       C  0.57428633  0.81463451  0.10675442     0.07100
C2454       C  0.55267809  0.78868919  0.12199793    -0.03000
Br2455     Br  0.51922853  0.78977138  0.14066366    -0.01500
Br2456     Br  0.52455340  0.72571492  0.14243847    -0.01600
Br2457     Br  0.62998612  0.84835943  0.07253221    -0.01600
Br2458     Br  0.63787852  0.78817278  0.07942484    -0.01500
C2459       C  0.56161179  0.53057143  0.10819433    -0.02700
C2460       C  0.58222928  0.55265460  0.12715810     0.07000
C2461       C  0.60075248  0.54545507  0.14412396    -0.02800
C2462       C  0.59671531  0.51547862  0.14393465    -0.02800
C2463       C  0.58365743  0.99406117  0.12739515     0.07100
C2464       C  0.55695290  0.50041229  0.10828084    -0.03000
Br2465     Br  0.56787930  0.98361936  0.06845009    -0.01500
Br2466     Br  0.53782077  0.54083476  0.08324484    -0.01600
Br2467     Br  0.62339130  0.50664745  0.16651157    -0.01600
Br2468     Br  0.63210672  0.57705315  0.16721771    -0.01500
C2469       C  0.61799405  0.60925757  0.02654616    -0.02700
C2470       C  0.60716425  0.63045058  0.02375990     0.07000
C2471       C  0.60571058  0.64133042  0.99723733    -0.02800
C2472       C  0.61556209  0.63175346  0.97407749    -0.02800
C2473       C  0.62552388  0.61004454  0.97696019     0.07100
C2474       C  0.62615598  0.59842004  0.00316489    -0.03000
Br2475     Br  0.63827357  0.56747087  0.00683991    -0.01500
Br2476     Br  0.62525590  0.59733397  0.06217105    -0.01600
Br2477     Br  0.61708649  0.64979072  0.93861023    -0.01600
Br2478     Br  0.58974846  0.66910007  0.99239747    -0.01500
C2479       C  0.92546543  0.62566508  0.74169127    -0.02700
C2480       C  0.90740823  0.60299215  0.72211070     0.07000
C2481       C  0.87983222  0.57642509  0.73023782    -0.02800
C2482       C  0.87257947  0.57077756  0.75832609    -0.02800
C2483       C  0.89335957  0.59120126  0.77819832     0.07100
C2484       C  0.91867192  0.61964779  0.76984042    -0.03000
Br2485     Br  0.94642601  0.64840932  0.79688030    -0.01500
Br2486     Br  0.96105591  0.66369010  0.72989603    -0.01600
Br2487     Br  0.83565196  0.53376844  0.76996605    -0.01600
Br2488     Br  0.85402083  0.54616461  0.70322175    -0.01500
C2489       C  0.53636210  0.64871990  0.50176443    -0.02700
C2490       C  0.52260983  0.63991811  0.47555672     0.07000
C2491       C  0.98997962  0.62331089  0.47303524    -0.02800
C2492       C  0.97131022  0.61347719  0.49671239    -0.02800
C2493       C  0.98503430  0.62223450  0.52297711     0.07100
C2494       C  0.51763799  0.64073857  0.52530151    -0.03000
Br2495     Br  0.53696091  0.65831928  0.56000447    -0.01500
Br2496     Br  0.58104648  0.67241708  0.50537197    -0.01600
Br2497     Br  0.92683857  0.58807421  0.49317629    -0.01600
Br2498     Br  0.97066877  0.61739368  0.43741604    -0.01500
C2499       C  0.62093995  0.69333789  0.26269789    -0.02700
C2500       C  0.59741789  0.69314111  0.27865250     0.07000
C2501       C  0.57361970  0.69613164  0.26570663    -0.02800
C2502       C  0.57077879  0.69447266  0.23683963    -0.02800
C2503       C  0.59228477  0.69079809  0.22107539     0.07100
C2504       C  0.61851814  0.69242051  0.23387295    -0.03000
Br2505     Br  0.64948837  0.69019549  0.21200694    -0.01500
Br2506     Br  0.65559140  0.69333551  0.28055925    -0.01600
Br2507     Br  0.53671379  0.69554153  0.21886397    -0.01600
Br2508     Br  0.54346665  0.69974594  0.28758719    -0.01500
C2509       C  0.69986779  0.62014610  0.76766719    -0.02700
C2510       C  0.68779666  0.59100407  0.78040182     0.07000
C2511       C  0.68373832  0.56554192  0.76492875    -0.02800
C2512       C  0.68879850  0.56854874  0.73636386    -0.02800
C2513       C  0.69725663  0.59679441  0.72317000     0.07100
C2514       C  0.70436946  0.62296575  0.73899441    -0.03000
Br2515     Br  0.71766683  0.66191852  0.72091141    -0.01500
Br2516     Br  0.70667708  0.65537327  0.78901054    -0.01600
Br2517     Br  0.68121847  0.53324251  0.71470738    -0.01600
Br2518     Br  0.66934265  0.52615463  0.78265132    -0.01500
C2519       C  0.78562324  0.58707808  0.63880189    -0.02700
C2520       C  0.76541967  0.57413518  0.61608069     0.07000
C2521       C  0.77321660  0.56005600  0.59499168    -0.02800
C2522       C  0.80288876  0.56322066  0.59432062    -0.02800
C2523       C  0.82474386  0.57967287  0.61532557     0.07100
C2524       C  0.81475080  0.58888718  0.63885450    -0.03000
Br2525     Br  0.84038418  0.60507490  0.67128581    -0.01500
Br2526     Br  0.77544216  0.60552912  0.66883267    -0.01600
Br2527     Br  0.81285634  0.54406762  0.56475171    -0.01600
Br2528     Br  0.74312287  0.53642611  0.56678973    -0.01500
C2529       C  0.56998059  0.58018246  0.59886037    -0.02700
C2530       C  0.59341254  0.59171876  0.61935154     0.07000
C2531       C  0.59626073  0.61564027  0.63679527    -0.02800
C2532       C  0.57273305  0.62331795  0.63735897    -0.02800
C2533       C  0.54689095  0.60814211  0.61987033     0.07100
C2534       C  0.54667008  0.58829060  0.59923004    -0.03000
Br2535     Br  0.01263264  0.56912088  0.57333128    -0.01500
Br2536     Br  0.56802348  0.55199365  0.57105180    -0.01600
Br2537     Br  0.57532270  0.65421612  0.66249953    -0.01600
Br2538     Br  0.63242671  0.63837952  0.65998869    -0.01500
C2539       C  0.64627504  0.01262702  0.47556961    -0.02700
C2540       C  0.62565656  0.98056044  0.47851258     0.07000
C2541       C  0.61542226  0.96828110  0.50501309    -0.02800
C2542       C  0.62956936  0.48511676  0.53156812    -0.02800
C2543       C  0.64775383  0.51742612  0.52788815     0.07100
C2544       C  0.65789012  0.52917096  0.50119924    -0.03000
Br2545     Br  0.68459355  0.57297619  0.49550401    -0.01500
Br2546     Br  0.66514380  0.02970787  0.44067793    -0.01600
Br2547     Br  0.62516006  0.46745903  0.56768482    -0.01600
Br2548     Br  0.58574332  0.92494408  0.50937597    -0.01500
C2549       C  0.62509755  0.56490159  0.36413581    -0.02700
C2550       C  0.61245766  0.54150789  0.38420697     0.07000
C2551       C  0.59491947  0.54389560  0.40569582    -0.02800
C2552       C  0.58613084  0.56673781  0.40470007    -0.02800
C2553       C  0.59448147  0.58712040  0.38179754     0.07100
C2554       C  0.61674166  0.58793641  0.36319213    -0.03000
Br2555     Br  0.63711166  0.62108235  0.33676969    -0.01500
Br2556     Br  0.65344933  0.56469389  0.33739787    -0.01600
Br2557     Br  0.56222597  0.56873127  0.43480583    -0.01600
Br2558     Br  0.56821024  0.00427388  0.42339418    -0.01500
C2559       C  0.58798532  0.80701555  0.36446545    -0.02700
C2560       C  0.57776014  0.81663910  0.38754898     0.07000
C2561       C  0.56172542  0.79483691  0.40859887    -0.02800
C2562       C  0.55958087  0.76562982  0.40826499    -0.02800
C2563       C  0.57405643  0.75805031  0.38729814     0.07100
C2564       C  0.58714379  0.77841631  0.36478914    -0.03000
Br2565     Br  0.60723398  0.76919101  0.33551339    -0.01500
Br2566     Br  0.60421105  0.83268628  0.33227326    -0.01600
Br2567     Br  0.53655848  0.73573491  0.43658455    -0.01600
Br2568     Br  0.54148031  0.80429776  0.43750952    -0.01500
C2569       C  0.62226249  0.91806002  0.23167450    -0.02700
C2570       C  0.59388374  0.89399680  0.22149288     0.07000
C2571       C  0.57257985  0.87148808  0.23973973    -0.02800
C2572       C  0.57765046  0.87535187  0.26832165    -0.02800
C2573       C  0.60437799  0.90143935  0.27858704     0.07100
C2574       C  0.62773524  0.92136465  0.26023831    -0.03000
Br2575     Br  0.66579819  0.95510728  0.27463292    -0.01500
Br2576     Br  0.65141053  0.94903644  0.20685334    -0.01600
Br2577     Br  0.54610748  0.84740058  0.29336933    -0.01600
Br2578     Br  0.53456203  0.83756280  0.22544602    -0.01500
C2579       C  0.87275495  0.79204666  0.73397349    -0.02700
C2580       C  0.90119146  0.80018668  0.72125650     0.07000
C2581       C  0.92593049  0.80241161  0.73720523    -0.02800
C2582       C  0.92343401  0.79998339  0.76604816    -0.02800
C2583       C  0.89589395  0.79463527  0.77894050     0.07100
C2584       C  0.87011488  0.78934413  0.76279418    -0.03000
Br2585     Br  0.83230849  0.78156327  0.78042213    -0.01500
Br2586     Br  0.83873810  0.78852495  0.71204637    -0.01600
Br2587     Br  0.95933106  0.80880840  0.78809671    -0.01600
Br2588     Br  0.96428065  0.81198577  0.71958383    -0.01500
C2589       C  0.82432025  0.71669032  0.58989656    -0.02700
C2590       C  0.82653704  0.74196211  0.60481277     0.07000
C2591       C  0.80102268  0.73726238  0.62095348    -0.02800
C2592       C  0.77358859  0.70785424  0.62184996    -0.02800
C2593       C  0.77144832  0.68287341  0.60664584     0.07100
C2594       C  0.79711348  0.68760153  0.59074919    -0.03000
Br2595     Br  0.79602649  0.65372682  0.57077067    -0.01500
Br2596     Br  0.85917154  0.72067227  0.56914488    -0.01600
Br2597     Br  0.73836456  0.70221299  0.64268838    -0.01600
Br2598     Br  0.80302013  0.77146162  0.64064232    -0.01500
C2599       C  0.52833872  0.92199949  0.65429635    -0.02700
C2600       C  0.00797909  0.91510883  0.63150073     0.07000
C2601       C  0.52049239  0.93181872  0.60677754    -0.02800
C2602       C  0.54890398  0.95977211  0.60720092    -0.02800
C2603       C  0.56761458  0.96892386  0.63111549     0.07100
C2604       C  0.55805356  0.94873820  0.65398388    -0.03000
Br2605     Br  0.58563475  0.95760117  0.68507868    -0.01500
Br2606     Br  0.51699887  0.89447394  0.68553364    -0.01600
Br2607     Br  0.56246288  0.47908520  0.57438688    -0.01600
Br2608     Br  0.00029076  0.91632565  0.57160512    -0.01500
C2609       C  0.92362794  0.70215068  0.63397845    -0.02700
C2610       C  0.93694879  0.69456091  0.61196007     0.07000
C2611       C  0.95264460  0.71688709  0.59118954    -0.02800
C2612       C  0.95157551  0.74453733  0.59063275    -0.02800
C2613       C  0.93422682  0.74988386  0.61051208     0.07100
C2614       C  0.92110595  0.72887742  0.63274230    -0.03000
Br2615     Br  0.89622299  0.73389925  0.66048355    -0.01500
Br2616     Br  0.90751335  0.67597233  0.66594682    -0.01600
Br2617     Br  0.97440876  0.77514732  0.56273867    -0.01600
Br2618     Br  0.97676281  0.71025707  0.56395323    -0.01500
C2619       C  0.95380062  0.97544918  0.63604945    -0.02700
C2620       C  0.92406648  0.95144834  0.62770196     0.07000
C2621       C  0.90175673  0.95930022  0.61879409    -0.02800
C2622       C  0.90904246  0.99059535  0.61886888    -0.02800
C2623       C  0.93499065  0.51281519  0.63118863     0.07100
C2624       C  0.96061596  0.00618121  0.63660537    -0.03000
Br2625     Br  0.99835469  0.53630322  0.65056639    -0.01500
Br2626     Br  0.98655539  0.96742498  0.64668439    -0.01600
Br2627     Br  0.87843497  0.00130236  0.60774684    -0.01600
Br2628     Br  0.86066927  0.92731623  0.60834240    -0.01500
C2629       C  0.79878302  0.86792595  0.26131194    -0.02700
C2630       C  0.79738532  0.88921649  0.27923263     0.07000
C2631       C  0.78887653  0.91026850  0.26883552    -0.02800
C2632       C  0.78631492  0.91288968  0.24020823    -0.02800
C2633       C  0.79329298  0.89527328  0.22225556     0.07100
C2634       C  0.79762823  0.87150233  0.23276968    -0.03000
Br2635     Br  0.80688241  0.84717088  0.20813334    -0.01500
Br2636     Br  0.80596178  0.83615255  0.27598581    -0.01600
Br2637     Br  0.77739423  0.94335575  0.22526625    -0.01600
Br2638     Br  0.78555468  0.93865634  0.29322771    -0.01500
C2639       C  0.90222491  0.90528483  0.52152433    -0.02700
C2640       C  0.90502376  0.87840352  0.52176078     0.07000
C2641       C  0.90039677  0.86223121  0.49678246    -0.02800
C2642       C  0.88786231  0.86921640  0.47369812    -0.02800
C2643       C  0.88238601  0.89412035  0.47440981     0.07100
C2644       C  0.89049358  0.91274472  0.49798081    -0.03000
Br2645     Br  0.88384560  0.94754355  0.49827862    -0.01500
Br2646     Br  0.91453832  0.93265139  0.55260925    -0.01600
Br2647     Br  0.87573257  0.84302995  0.44173946    -0.01600
Br2648     Br  0.91341726  0.83199630  0.49317205    -0.01500
C2649       C  0.92010996  0.51841239  0.34890269    -0.02700
C2650       C  0.91245266  0.99712102  0.36382739     0.07000
C2651       C  0.93090558  0.51087206  0.39630228    -0.02800
C2652       C  0.95799631  0.54018051  0.39615890    -0.02800
C2653       C  0.96686764  0.55843432  0.37209295     0.07100
C2654       C  0.94645610  0.54834829  0.34928763    -0.03000
Br2655     Br  0.95431128  0.57594436  0.31858687    -0.01500
Br2656     Br  0.89233903  0.50657751  0.31760690    -0.01600
Br2657     Br  0.48409727  0.55344946  0.42854387    -0.01600
Br2658     Br  0.90748085  0.99223929  0.42385282    -0.01500
C2659       C  0.71868890  0.81416263  0.41165637    -0.02700
C2660       C  0.74293776  0.81695773  0.39465784     0.07000
C2661       C  0.73664889  0.79306907  0.37582997    -0.02800
C2662       C  0.70675971  0.76629762  0.37473389    -0.02800
C2663       C  0.68295919  0.76341039  0.39230806     0.07100
C2664       C  0.68901286  0.78790595  0.41021867    -0.03000
Br2665     Br  0.65597602  0.78688818  0.43184139    -0.01500
Br2666     Br  0.72475923  0.84691866  0.43635047    -0.01600
Br2667     Br  0.69877833  0.73329750  0.34983170    -0.00400
Br2668     Br  0.76926235  0.79635263  0.35245833    -0.01500
C2669       C  0.97633114  0.94558627  0.36510555    -0.02700
C2670       C  0.95237178  0.91554286  0.37210738     0.07000
C2671       C  0.96041889  0.89301422  0.37929901    -0.02800
C2672       C  0.99194554  0.90062501  0.37925431    -0.02800
C2673       C  0.51521659  0.93008827  0.37043247     0.07100
C2674       C  0.00705266  0.95219545  0.36280616    -0.03000
Br2675     Br  0.53748106  0.99140197  0.34744315    -0.01500
Br2676     Br  0.96816058  0.97895296  0.35940035    -0.01600
Br2677     Br  0.00318781  0.87030337  0.38954580    -0.01600
Br2678     Br  0.92852163  0.85123346  0.38684503    -0.01500
C2679       C  0.72597847  0.90763755  0.36964934    -0.02700
C2680       C  0.74761068  0.92117380  0.39138466     0.07000
C2681       C  0.74279041  0.93878783  0.41125323    -0.02800
C2682       C  0.71559593  0.94095012  0.41044096    -0.02800
C2683       C  0.69300423  0.92578923  0.38955589     0.07100
C2684       C  0.70013304  0.91182974  0.36772363    -0.03000
Br2685     Br  0.67592771  0.89906484  0.33430534    -0.01500
Br2686     Br  0.72871616  0.87939991  0.34434813    -0.01600
Br2687     Br  0.71054031  0.96660091  0.43707502    -0.01600
Br2688     Br  0.77325351  0.95996116  0.43983914    -0.01500
loop_ 
_geom_bond_atom_site_label_1 
_geom_bond_atom_site_label_2 
_geom_bond_distance 
_geom_bond_site_symmetry_2 
_ccdc_geom_bond_type 
O1           Ni7   1.915       .  S
O1           C22   1.268       .  A
O2          Ni25   1.913       .  S
O2           C11   1.267       .  A
O3           Ni7   1.916       .  S
O3          Ni25   1.919       .  S
O3          Ni19   1.922       .  S
O3           H26   0.967       .  S
C4           O21   1.276       .  A
C4           O13   1.282       .  A
C4          C664   1.494       .  S
O5          Ni24   1.946       .  S
O5           C11   1.276       .  A
O6          Ni24   1.904       .  S
O6            C8   1.269       .  A
Ni7          O10   1.914       .  S
Ni7          O12   1.924       .  S
C8           O18   1.274       .  A
C8          C644   1.485       .  S
O9          Ni25   1.920       .  S
O9           C15   1.272       .  A
O10          C15   1.269       .  A
C11         C627   1.508       .  S
O12          C14   1.273       .  A
O13         Ni24   1.935       .  S
C14          O20   1.272       .  A
C14         C634   1.510       .  S
C15         C654   1.487       .  S
H16          O17   0.966       .  S
O17         Ni25   1.901       .  S
O17         Ni19   1.897       .  S
O17         Ni24   1.894       .  S
O18         Ni19   1.933       .  S
Ni19         O23   1.917       .  S
Ni19         O21   1.914       .  S
O20         Ni25   1.935       .  S
C22          O23   1.268       .  A
C22         C614   1.474       .  S
O27         Ni33   1.910       .  S
O27          C48   1.267       .  A
O28         Ni51   1.908       .  S
O28          C37   1.268       .  A
O29         Ni33   1.918       .  S
O29         Ni51   1.917       .  S
O29         Ni45   1.935       .  S
O29          H52   0.966       .  S
C30          O47   1.276       .  A
C30          O39   1.281       .  A
C30         C597   1.496       .  S
O31         Ni50   1.942       .  S
O31          C37   1.275       .  A
O32         Ni50   1.902       .  S
O32          C34   1.269       .  A
Ni33         O36   1.924       .  S
Ni33         O38   1.913       .  S
C34          O44   1.279       .  A
C34         C574   1.492       .  S
O35         Ni51   1.927       .  S
O35          C41   1.270       .  A
O36          C41   1.269       .  A
C37         C624   1.480       .  S
O38          C40   1.271       .  A
O39         Ni50   1.938       .  S
C40          O46   1.279       .  A
C40         C584   1.506       .  S
C41         C604   1.490       .  S
H42          O43   0.965       .  S
O43         Ni51   1.907       .  S
O43         Ni45   1.897       .  S
O43         Ni50   1.897       .  S
O44         Ni45   1.947       .  S
Ni45         O49   1.923       .  S
Ni45         O47   1.915       .  S
O46         Ni51   1.949       .  S
C48          O49   1.270       .  A
C48         C564   1.475       .  S
O53         Ni59   1.922       .  S
O53          C74   1.269       .  A
O54         Ni77   1.906       .  S
O54          C63   1.268       .  A
O55         Ni59   1.917       .  S
O55         Ni77   1.920       .  S
O55         Ni71   1.926       .  S
O55          H78   0.966       .  S
C56          O73   1.272       .  A
C56          O65   1.279       .  A
C56         C544   1.502       .  S
O57         Ni76   1.950       .  S
O57          C63   1.276       .  A
O58         Ni76   1.907       .  S
O58          C60   1.270       .  A
Ni59         O62   1.921       .  S
Ni59         O64   1.907       .  S
C60          O70   1.271       .  A
C60         C667   1.493       .  S
O61         Ni77   1.918       .  S
O61         C739   1.268       .  A
O62         C739   1.269       .  A
C63         C524   1.489       .  S
O64          C66   1.272       .  A
O65         Ni76   1.943       .  S
C66          O72   1.278       .  A
C66         C657   1.476       .  S
C67         O733   1.265       .  A
C67         O734   1.267   1_545  A
C67         C534   1.483       .  S
H68          O69   0.966       .  S
O69         Ni77   1.912       .  S
O69         Ni71   1.910       .  S
O69         Ni76   1.921       .  S
O70         Ni71   1.929       .  S
Ni71         O75   1.912       .  S
Ni71         O73   1.918       .  S
O72         Ni77   1.949       .  S
C74          O75   1.266       .  A
C74         C557   1.476       .  S
O79         Ni85   1.923       .  S
O79         C100   1.268       .  A
O80        Ni103   1.911       .  S
O80          C89   1.270       .  A
O81         Ni85   1.904       .  S
O81        Ni103   1.898       .  S
O81         Ni97   1.916       .  S
O81         H104   0.967       .  S
C82          O99   1.280       .  A
C82          O91   1.280       .  A
C82         C577   1.487       .  S
O83        Ni102   1.941       .  S
O83          C89   1.276       .  A
O84        Ni102   1.906       .  S
O84          C86   1.269       .  A
Ni85         O90   1.893       .  S
Ni85        O760   1.933       .  S
C86          O96   1.273       .  A
C86         C504   1.486       .  S
O87        Ni775   1.915       .  S
O87          C93   1.274       .  A
O88        Ni757   1.933       .  S
O88          C93   1.278       .  A
C89         C527   1.487       .  S
O90          C92   1.266       .  A
O91        Ni102   1.927       .  S
C92          O98   1.273       .  A
C92         C514   1.493       .  S
C93         C587   1.491       .  S
H94          O95   0.966       .  S
O95        Ni103   1.912       .  S
O95         Ni97   1.900       .  S
O95        Ni102   1.891       .  S
O96         Ni97   1.930       .  S
Ni97        O101   1.912       .  S
Ni97         O99   1.937       .  S
O98        Ni103   1.940       .  S
C100        O101   1.267       .  A
C100        C497   1.467       .  S
Ni103       O759   1.914       .  S
O105       Ni111   1.926       .  S
O105        C126   1.271       .  A
O106       Ni129   1.914       .  S
O106        C115   1.271       .  A
O107       Ni111   1.904       .  S
O107       Ni129   1.898       .  S
O107       Ni123   1.918       .  S
O107        H130   0.967       .  S
C108        O125   1.281       .  A
C108        O117   1.277       .  A
C108        C647   1.478       .  S
O109       Ni128   1.923       .  S
O109        C115   1.270       .  A
O110       Ni128   1.907       .  S
O110        C112   1.269       .  A
Ni111       O114   1.938       .  S
Ni111       O116   1.904       .  S
C112        O122   1.275       .  A
C112        C547   1.494       .  S
O113       Ni129   1.921       .  S
O113       C1463   1.276   1_455  A
O114       C1463   1.279   1_455  A
C115        C474   1.474       .  S
O116        C118   1.268       .  A
O117       Ni128   1.915       .  S
C118        O124   1.278       .  A
C118        C537   1.500       .  S
C119       O1457   1.276       .  A
C119       O1458   1.279       .  A
C119        C637   1.500       .  S
H120        O121   0.966       .  S
O121       Ni129   1.913       .  S
O121       Ni123   1.900       .  S
O121       Ni128   1.891       .  S
O122       Ni123   1.940       .  S
Ni123       O127   1.911       .  S
Ni123       O125   1.940       .  S
O124       Ni129   1.951       .  S
C126        O127   1.268       .  A
C126        C484   1.472       .  S
O131       Ni137   1.924       .  S
O131        C152   1.270       .  A
O132       Ni155   1.899       .  S
O132        C141   1.266       .  A
O133       Ni137   1.916       .  S
O133       Ni155   1.912       .  S
O133       Ni149   1.914       .  S
O133        H156   0.966       .  S
C134        O151   1.272       .  A
C134        O143   1.279       .  A
C134        C507   1.496       .  S
O135       Ni154   1.940       .  S
O135        C141   1.275       .  A
O136       Ni154   1.917       .  S
O136        C138   1.270       .  A
Ni137       O140   1.926       .  S
Ni137       O142   1.910       .  S
C138        O148   1.272       .  A
C138        C594   1.496       .  S
O139       Ni155   1.902       .  S
O139       C1489   1.266       .  A
O140       C1489   1.272       .  A
C141        C477   1.476       .  S
O142        C144   1.271       .  A
O143       Ni154   1.931       .  S
C144        O150   1.278       .  A
C144        C607   1.484       .  S
C145       O1483   1.266       .  A
C145       O1484   1.272       .  A
C145        C517   1.480       .  S
H146        O147   0.966       .  S
O147       Ni155   1.897       .  S
O147       Ni149   1.895       .  S
O147       Ni154   1.912       .  S
O148       Ni149   1.931       .  S
Ni149       O153   1.898       .  S
Ni149       O151   1.913       .  S
O150       Ni155   1.952       .  S
C152        O153   1.262       .  A
C152        C464   1.464       .  S
O157       Ni163   1.926       .  S
O157        C178   1.269       .  A
O158       Ni181   1.907       .  S
O158        C167   1.267       .  A
O159       Ni163   1.909       .  S
O159       Ni181   1.898       .  S
O159       Ni175   1.907       .  S
O159        H182   0.966       .  S
C160        O177   1.276       .  A
C160        O169   1.278       .  A
C160        C434   1.472       .  S
O161       Ni180   1.941       .  S
O161        C167   1.275       .  A
O162       Ni180   1.915       .  S
O162        C164   1.270       .  A
Ni163       O166   1.929       .  S
Ni163       O168   1.902       .  S
C164        O174   1.270       .  A
C164        C424   1.496       .  S
O165       Ni181   1.896       .  S
O165        C171   1.268       .  A
O166        C171   1.276       .  A
C167        C454   1.481       .  S
O168        C170   1.268       .  A
O169       Ni180   1.920       .  S
C170        O176   1.275       .  A
C170        C417   1.503   1_455  S
C171        C444   1.475       .  S
H172        O173   0.966       .  S
O173       Ni181   1.901       .  S
O173       Ni175   1.900       .  S
O173       Ni180   1.900       .  S
O174       Ni175   1.925       .  S
Ni175       O179   1.903       .  S
Ni175       O177   1.921       .  S
O176       Ni181   1.941       .  S
C178        O179   1.264       .  A
C178        C487   1.466       .  S
O183       Ni189   1.934       .  S
O183        C204   1.274       .  A
O184       Ni207   1.915       .  S
O184        C193   1.270       .  A
O185       Ni189   1.907       .  S
O185       Ni207   1.909       .  S
O185       Ni201   1.922       .  S
O185        H208   0.966       .  S
C186        O203   1.278       .  A
C186        O195   1.278       .  A
C186        C394   1.489       .  S
O187       Ni206   1.933       .  S
O187        C193   1.272       .  A
O188       Ni206   1.908       .  S
O188        C190   1.269       .  A
Ni189       O192   1.934       .  S
Ni189       O194   1.907       .  S
C190        O200   1.267       .  A
C190        C377   1.479       .  S
O191       Ni207   1.914       .  S
O191        C197   1.270       .  A
O192        C197   1.273       .  A
C193        C457   1.486       .  S
O194        C196   1.272       .  A
O195       Ni206   1.930       .  S
C196        O202   1.278       .  A
C196        C387   1.472   1_545  S
C197        C407   1.492       .  S
H198        O199   0.965       .  S
O199       Ni207   1.911       .  S
O199       Ni201   1.897       .  S
O199       Ni206   1.903       .  S
O200       Ni201   1.915       .  S
Ni201       O205   1.895       .  S
Ni201       O203   1.933       .  S
O202       Ni207   1.944       .  S
C204        O205   1.262       .  A
C204        C494   1.467       .  S
O209       Ni215   1.920       .  S
O209        C230   1.266       .  A
O210       Ni233   1.914       .  S
O210        C219   1.270       .  A
O211       Ni215   1.908       .  S
O211       Ni233   1.912       .  S
O211       Ni227   1.906       .  S
O211        H234   0.966       .  S
C212        O229   1.271       .  A
C212        O221   1.284       .  A
C212        C367   1.489       .  S
O213       Ni232   1.946       .  S
O213        C219   1.275       .  A
O214       Ni232   1.891       .  S
O214        C216   1.266       .  A
Ni215       O218   1.910       .  S
Ni215       O220   1.914       .  S
C216        O226   1.280       .  A
C216        C437   1.487       .  S
O217       Ni233   1.924   1_655  S
O217       C1567   1.279       .  A
O218       C1567   1.273   1_455  A
C219        C344   1.488       .  S
O220        C222   1.270       .  A
O221       Ni232   1.945       .  S
C222        O228   1.269       .  A
C222        C447   1.493       .  S
C223       O1561   1.279       .  A
C223       O1562   1.273       .  A
C223        C354   1.486       .  S
H224        O225   0.966       .  S
O225       Ni233   1.910       .  S
O225       Ni227   1.901       .  S
O225       Ni232   1.888       .  S
O226       Ni227   1.948       .  S
Ni227       O231   1.922       .  S
Ni227       O229   1.899       .  S
O228       Ni233   1.925       .  S
C230        O231   1.267       .  A
C230        C554   1.474       .  S
O235       Ni241   1.914       .  S
O235        C256   1.263       .  A
O236       Ni259   1.923       .  S
O236        C245   1.273       .  A
O237       Ni241   1.904       .  S
O237       Ni259   1.911       .  S
O237       Ni253   1.911       .  S
O237        H260   0.966       .  S
C238        O255   1.279       .  A
C238        O247   1.283       .  A
C238        C374   1.486       .  S
O239       Ni258   1.951       .  S
O239        C245   1.279       .  A
O240       Ni258   1.915       .  S
O240        C242   1.270       .  A
Ni241       O244   1.908       .  S
Ni241       O246   1.902       .  S
C242        O252   1.271       .  A
C242        C337   1.500       .  S
O243       Ni259   1.921       .  S
O243       C1593   1.277       .  A
O244       C1593   1.274       .  A
C245        C347   1.514       .  S
O246        C248   1.268       .  A
O247       Ni258   1.937       .  S
C248        O254   1.273       .  A
C248        C327   1.496       .  S
C249       O1587   1.277       .  A
C249       O1588   1.274       .  A
C249        C384   1.473   1_655  S
H250        O251   0.966       .  S
O251       Ni259   1.901       .  S
O251       Ni253   1.898       .  S
O251       Ni258   1.891       .  S
O252       Ni253   1.932       .  S
Ni253       O257   1.925       .  S
Ni253       O255   1.914       .  S
O254       Ni259   1.936       .  S
C256        O257   1.267       .  A
C256        C567   1.477       .  S
O261       Ni267   1.915       .  S
O261        C282   1.268       .  A
O262       Ni285   1.900       .  S
O262        C271   1.266       .  A
O263       Ni267   1.912       .  S
O263       Ni285   1.916       .  S
O263       Ni279   1.923       .  S
O263        H286   0.967       .  S
C264        O281   1.274       .  A
C264        O273   1.277       .  A
C264        C427   1.497       .  S
O265       Ni284   1.936       .  S
O265        C271   1.272       .  A
O266       Ni284   1.907       .  S
O266        C268   1.268       .  A
Ni267       O270   1.924       .  S
Ni267       O272   1.900       .  S
C268        O278   1.271       .  A
C268        C364   1.482       .  S
O269       Ni285   1.907       .  S
O269        C947   1.265       .  A
O270        C947   1.269       .  A
C271        C314   1.477       .  S
O272        C274   1.269       .  A
O273       Ni284   1.927       .  S
C274        O280   1.279       .  A
C274        C357   1.477       .  S
C275        O941   1.269   1_545  A
C275        O942   1.271   1_545  A
C275        C414   1.489       .  S
H276        O277   0.956       .  S
O277       Ni285   1.902       .  S
O277       Ni279   1.905       .  S
O277       Ni284   1.915       .  S
O278       Ni279   1.926       .  S
Ni279       O283   1.913       .  S
Ni279       O281   1.918       .  S
O280       Ni285   1.956       .  S
C282        O283   1.267       .  A
C282        C617   1.471       .  S
O287       Ni293   1.910       .  S
O287        C308   1.269       .  A
O288       Ni311   1.912       .  S
O288        C297   1.270       .  A
O289       Ni293   1.919       .  S
O289       Ni311   1.911       .  S
O289       Ni305   1.939       .  S
O289        H312   0.966       .  S
C290        O307   1.278       .  A
C290        O299   1.280       .  A
C290        C334   1.496       .  S
O291       Ni310   1.936       .  S
O291        C297   1.272       .  A
O292       Ni310   1.895       .  S
O292        C294   1.267       .  A
Ni293       O298   1.902       .  S
Ni293       O968   1.931   1_545  S
C294        O304   1.276       .  A
C294        C397   1.487       .  S
O295       Ni983   1.906       .  S
O295        C301   1.263       .  A
O296       Ni965   1.934       .  S
O296        C301   1.269       .  A
C297        C317   1.486       .  S
O298        C300   1.271       .  A
O299       Ni310   1.933       .  S
C300        O306   1.284       .  A
C300        C404   1.512       .  S
C301        C324   1.482       .  S
H302        O303   0.966       .  S
O303       Ni311   1.898       .  S
O303       Ni305   1.894       .  S
O303       Ni310   1.896       .  S
O304       Ni305   1.947       .  S
Ni305       O309   1.908       .  S
Ni305       O307   1.922       .  S
O306       Ni311   1.967       .  S
C308        O309   1.267       .  A
C308        C467   1.467       .  S
Ni311       O967   1.907   1_545  S
C313        C318   1.408   1_554  A
C313        C986   1.411   1_545  A
C313       Br320   1.926       .  S
C314        C315   1.406   1_554  A
C314        C985   1.411       .  A
C315        C316   1.407       .  A
C315       Br322   1.932       .  S
C316        C989   1.415       .  A
C316       Br321   1.921       .  S
C317        C318   1.413       .  A
C317        C988   1.415   1_545  A
C318       Br319   1.933   1_556  S
C323        C324   1.411       .  A
C323        C328   1.411       .  A
C323      Br1002   1.926       .  S
C324        C325   1.407       .  A
C325        C326   1.408       .  A
C325       Br332   1.931       .  S
C326        C327   1.418       .  A
C326       Br331   1.933       .  S
C327        C328   1.419       .  A
C328       Br329   1.932       .  S
Br330       C995   1.924       .  S
C333        C334   1.418       .  A
C333        C338   1.408       .  A
C333       Br340   1.935       .  S
C334        C335   1.417       .  A
C335        C336   1.414       .  A
C335       Br342   1.932       .  S
C336        C337   1.413       .  A
C336       Br341   1.931       .  S
C337        C338   1.414       .  A
C338       Br339   1.929       .  S
C343        C344   1.405       .  A
C343        C348   1.417   1_454  A
C343       Br350   1.932       .  S
C344       C1689   1.408   1_455  A
C345        C346   1.414       .  A
C345       C1688   1.408       .  A
C345       Br352   1.933       .  S
C346        C347   1.423   1_554  A
C346       Br351   1.935       .  S
C347       C1692   1.427       .  A
C348       C1691   1.427       .  A
C348       Br349   1.928   1_655  S
C353        C354   1.421       .  A
C353        C358   1.398       .  A
C353      Br1704   1.939       .  S
C354        C355   1.413       .  A
C355        C356   1.416       .  A
C355       Br362   1.929       .  S
C356        C357   1.411       .  A
C356       Br361   1.924       .  S
C357        C358   1.406       .  A
C358       Br359   1.936       .  S
Br360      C1697   1.939   1_455  S
C363        C364   1.410       .  A
C363        C368   1.411       .  A
C363       Br370   1.930       .  S
C364        C365   1.410       .  A
C365        C366   1.406       .  A
C365       Br372   1.928       .  S
C366        C367   1.421       .  A
C366       Br371   1.940       .  S
C367        C368   1.412       .  A
C368       Br369   1.929       .  S
C373        C374   1.415       .  A
C373        C378   1.410       .  A
C373       Br380   1.931       .  S
C374        C375   1.412       .  A
C375        C376   1.405       .  A
C375       Br382   1.930       .  S
C376        C377   1.415       .  A
C376       Br381   1.934       .  S
C377        C378   1.409       .  A
C378       Br379   1.932       .  S
C383        C384   1.411       .  A
C383        C388   1.413       .  A
C383       Br390   1.927       .  S
C384        C385   1.412       .  A
C385        C386   1.395       .  A
C385      Br1736   1.935   1_455  S
C386       C1059   1.407       .  A
C386      Br1063   1.931       .  S
C387       C1058   1.407       .  A
C387       C1060   1.410       .  A
C388       C1059   1.410       .  A
C388       Br389   1.925       .  S
Br391      C1058   1.931   1_545  S
Br392      C1729   1.935       .  S
C393        C394   1.415       .  A
C393        C398   1.421       .  A
C393       Br400   1.926       .  S
C394        C395   1.412       .  A
C395        C396   1.399       .  A
C395       Br402   1.929       .  S
C396        C397   1.411       .  A
C396       Br401   1.937       .  S
C397        C398   1.413       .  A
C398       Br399   1.926       .  S
C403        C408   1.411   1_655  A
C403       C1748   1.418       .  A
C403      Br1754   1.930       .  S
C404       C1747   1.418       .  A
C404       C1749   1.424       .  A
C405        C406   1.413       .  A
C405       C1748   1.424   1_455  A
C405      Br1756   1.935   1_455  S
C406        C407   1.410       .  A
C406       Br411   1.934       .  S
C407        C408   1.414       .  A
C408       Br409   1.930       .  S
Br410      C1747   1.930       .  S
Br412      C1749   1.935       .  S
C413        C414   1.409       .  A
C413        C418   1.412       .  A
C413       Br420   1.930       .  S
C414        C415   1.413       .  A
C415        C416   1.411       .  A
C415      Br1094   1.929       .  S
C416       C1761   1.418       .  A
C416      Br1765   1.931       .  S
C417       C1760   1.418       .  A
C417       C1762   1.421       .  A
C418       C1761   1.421       .  A
C418       Br419   1.936       .  S
Br421      C1760   1.931   1_455  S
Br422      C1087   1.928       .  S
C423        C424   1.416       .  A
C423        C428   1.410       .  A
C423       Br430   1.934       .  S
C424        C425   1.421       .  A
C425        C426   1.409       .  A
C425       Br432   1.932       .  S
C426        C427   1.414       .  A
C426       Br431   1.936       .  S
C427        C428   1.414       .  A
C428       Br429   1.934       .  S
C433        C434   1.410       .  A
C433        C438   1.416       .  A
C433       Br440   1.928       .  S
C434        C435   1.403       .  A
C435        C436   1.398       .  A
C435       Br442   1.939       .  S
C436        C437   1.422       .  A
C436       Br441   1.935       .  S
C437        C438   1.413       .  A
C438       Br439   1.926       .  S
C443        C444   1.410       .  A
C443        C448   1.402       .  A
C443       Br450   1.931       .  S
C444        C445   1.409       .  A
C445        C446   1.408       .  A
C445       Br452   1.934       .  S
C446       C1119   1.420   1_545  A
C446       Br451   1.934       .  S
C447       C1118   1.416       .  A
C447       C1120   1.420       .  A
C448       C1119   1.419   1_545  A
C448      Br1121   1.935   1_545  S
Br449      C1120   1.938       .  S
C453        C454   1.411       .  A
C453        C458   1.410   1_554  A
C453       Br460   1.927       .  S
C454        C455   1.408   1_554  A
C455        C456   1.409       .  A
C455       Br462   1.931       .  S
C456        C457   1.414       .  A
C456       Br461   1.924       .  S
C457        C458   1.412       .  A
C458       Br459   1.932   1_556  S
C463        C464   1.408       .  A
C463        C468   1.407       .  A
C463       Br470   1.928       .  S
C464        C465   1.406       .  A
C465        C466   1.402       .  A
C465       Br472   1.931       .  S
C466        C467   1.408       .  A
C466       Br471   1.929       .  S
C467        C468   1.409       .  A
C468       Br469   1.928       .  S
C473        C474   1.409       .  A
C473        C478   1.405       .  A
C473       Br480   1.932       .  S
C474       C1819   1.410   1_455  A
C475        C476   1.408       .  A
C475       C1818   1.410       .  A
C475       Br482   1.927       .  S
C476        C477   1.408       .  A
C476       Br481   1.929       .  S
C477       C1822   1.411       .  A
C478       C1821   1.411   1_455  A
C478       Br479   1.926       .  S
C483        C484   1.408       .  A
C483        C488   1.403       .  A
C483       Br490   1.930       .  S
C484        C485   1.412       .  A
C485        C486   1.408       .  A
C485       Br492   1.928       .  S
C486        C487   1.405       .  A
C486       Br491   1.928       .  S
C487        C488   1.407       .  A
C488       Br489   1.931       .  S
C493        C494   1.406       .  A
C493        C498   1.405       .  A
C493       Br500   1.928       .  S
C494        C495   1.404       .  A
C495        C496   1.406       .  A
C495       Br502   1.926       .  S
C496        C497   1.410       .  A
C496       Br501   1.928       .  S
C497        C498   1.408       .  A
C498       Br499   1.927       .  S
C503        C504   1.414       .  A
C503        C508   1.408       .  A
C503       Br510   1.933       .  S
C504        C505   1.413       .  A
C505        C506   1.409       .  A
C505       Br512   1.933       .  S
C506        C507   1.415       .  A
C506       Br511   1.934       .  S
C507        C508   1.418       .  A
C508       Br509   1.929       .  S
C513        C514   1.414       .  A
C513        C518   1.409       .  A
C513       Br520   1.929       .  S
C514        C515   1.417       .  A
C515        C516   1.406       .  A
C515       Br522   1.935       .  S
C516        C517   1.408       .  A
C516       Br521   1.931       .  S
C517        C518   1.414       .  A
C518      Br1863   1.932       .  S
Br519      C1862   1.932       .  S
C523        C524   1.412       .  A
C523       C1200   1.410       .  A
C523       Br530   1.926       .  S
C524        C525   1.410       .  A
C525       C1198   1.414       .  A
C525       Br532   1.928       .  S
C526        C527   1.414   1_565  A
C526       C1197   1.412       .  A
C526       Br531   1.925       .  S
C527        C528   1.409       .  A
C528       C1195   1.410       .  A
C528       Br529   1.933       .  S
C533        C534   1.407       .  A
C533        C538   1.413       .  A
C533       Br540   1.929       .  S
C534        C535   1.409       .  A
C535        C536   1.410       .  A
C535      Br1214   1.931       .  S
C536        C537   1.416       .  A
C536       Br541   1.922       .  S
C537        C538   1.420       .  A
C538       Br539   1.931       .  S
Br542      C1207   1.931       .  S
C543        C544   1.419       .  A
C543        C548   1.413       .  A
C543       Br550   1.926       .  S
C544        C545   1.415       .  A
C545        C546   1.412       .  A
C545       Br552   1.931       .  S
C546        C547   1.413       .  A
C546       Br551   1.932       .  S
C547        C548   1.414       .  A
C548       Br549   1.931       .  S
C553        C554   1.408       .  A
C553        C558   1.407       .  A
C553       Br560   1.929       .  S
C554        C555   1.410       .  A
C555        C556   1.411       .  A
C555       Br562   1.928       .  S
C556        C557   1.409       .  A
C556       Br561   1.927       .  S
C557        C558   1.409       .  A
C558       Br559   1.929       .  S
C563        C564   1.410       .  A
C563        C568   1.409       .  A
C563       Br570   1.929       .  S
C564        C565   1.408       .  A
C565        C566   1.410       .  A
C565       Br572   1.928       .  S
C566        C567   1.412       .  A
C566       Br571   1.930       .  S
C567        C568   1.408       .  A
C568       Br569   1.928       .  S
C573        C574   1.418       .  A
C573        C578   1.404       .  A
C573       Br580   1.934       .  S
C574        C575   1.413       .  A
C575        C576   1.419       .  A
C575       Br582   1.927       .  S
C576        C577   1.414       .  A
C576       Br581   1.927       .  S
C577        C578   1.409       .  A
C578       Br579   1.937       .  S
C583        C588   1.411       .  A
C583       C1928   1.421       .  A
C583       Br590   1.935       .  S
C584       C1927   1.421       .  A
C584       C1929   1.419       .  A
C585        C586   1.408       .  A
C585       C1928   1.419       .  A
C585      Br1936   1.936   1_455  S
C586        C587   1.415       .  A
C586      Br1263   1.929       .  S
C587        C588   1.413       .  A
C588       Br589   1.936       .  S
Br591      C1258   1.928       .  S
Br592      C1929   1.936       .  S
C593        C594   1.414       .  A
C593        C598   1.408       .  A
C593       Br600   1.926       .  S
C594        C595   1.414       .  A
C595        C596   1.416       .  A
C595       Br602   1.931       .  S
C596        C597   1.416       .  A
C596       Br601   1.931       .  S
C597        C598   1.418       .  A
C598       Br599   1.940       .  S
C603        C604   1.414       .  A
C603        C608   1.397       .  A
C603       Br610   1.927       .  S
C604        C605   1.415       .  A
C605        C606   1.420       .  A
C605       Br612   1.925       .  S
C606       C1279   1.412       .  A
C606       Br611   1.926       .  S
C607       C1278   1.412   1_545  A
C607       C1280   1.405       .  A
C608       C1279   1.405       .  A
C608      Br1281   1.929       .  S
Br609      C1280   1.932       .  S
C613        C614   1.412       .  A
C613        C618   1.406       .  A
C613       Br620   1.930       .  S
C614        C615   1.406       .  A
C615        C616   1.409       .  A
C615       Br622   1.926       .  S
C616        C617   1.410       .  A
C616       Br621   1.928       .  S
C617        C618   1.406       .  A
C618       Br619   1.930       .  S
C623        C624   1.405       .  A
C623        C628   1.411       .  A
C623       Br630   1.931       .  S
C624        C625   1.403       .  A
C625        C626   1.413       .  A
C625       Br632   1.932       .  S
C626        C627   1.426       .  A
C626       Br631   1.929       .  S
C627        C628   1.422       .  A
C628       Br629   1.934       .  S
C633        C638   1.415       .  A
C633       C1306   1.421   1_545  A
C633       Br640   1.936       .  S
C634       C1305   1.420       .  A
C634       C1307   1.425       .  A
C635        C636   1.409       .  A
C635       C1306   1.417   1_545  A
C635      Br1314   1.937   1_545  S
C636        C637   1.416       .  A
C636      Br1985   1.927       .  S
C637        C638   1.418       .  A
C638       Br639   1.936       .  S
Br641      C1980   1.927       .  S
Br642      C1307   1.938       .  S
C643        C644   1.416       .  A
C643        C648   1.400       .  A
C643       Br650   1.934       .  S
C644        C645   1.413       .  A
C645        C646   1.417       .  A
C645       Br652   1.927       .  S
C646        C647   1.411       .  A
C646       Br651   1.927       .  S
C647        C648   1.407       .  A
C648       Br649   1.935       .  S
C653        C654   1.419       .  A
C653        C658   1.398       .  A
C653       Br660   1.934       .  S
C654        C655   1.415       .  A
C655        C656   1.416       .  A
C655       Br662   1.928       .  S
C656       C2001   1.410       .  A
C656       Br661   1.926       .  S
C657       C2000   1.410   1_455  A
C657       C2002   1.404       .  A
C658       C2001   1.404       .  A
C658      Br2003   1.931       .  S
Br659      C2002   1.931       .  S
C663        C664   1.419       .  A
C663        C668   1.407       .  A
C663       Br670   1.938       .  S
C664        C665   1.416       .  A
C665        C666   1.411       .  A
C665       Br672   1.932       .  S
C666        C667   1.413       .  A
C666       Br671   1.933       .  S
C667        C668   1.413       .  A
C668       Br669   1.928       .  S
O673       Ni679   1.905       .  S
O673        C694   1.267       .  A
O674       Ni697   1.905       .  S
O674        C683   1.268       .  A
O675       Ni679   1.919       .  S
O675       Ni697   1.917       .  S
O675       Ni691   1.942       .  S
O675        H698   0.967       .  S
C676        O693   1.274       .  A
C676        O685   1.278       .  A
C676       C1336   1.488       .  S
O677       Ni696   1.939       .  S
O677        C683   1.274       .  A
O678       Ni696   1.907       .  S
O678        C680   1.269       .  A
Ni679       O682   1.924       .  S
Ni679       O684   1.915       .  S
C680        O690   1.275       .  A
C680       C1316   1.492       .  S
O681       Ni697   1.927       .  S
O681        C687   1.269       .  A
O682        C687   1.268       .  A
C683       C1299   1.476       .  S
O684        C686   1.273       .  A
O685       Ni696   1.938       .  S
C686        O692   1.282       .  A
C686       C1306   1.508       .  S
C687       C1326   1.492       .  S
H688        O689   0.966       .  S
O689       Ni697   1.902       .  S
O689       Ni691   1.898       .  S
O689       Ni696   1.901       .  S
O690       Ni691   1.942       .  S
Ni691       O695   1.915       .  S
Ni691       O693   1.910       .  S
O692       Ni697   1.952       .  S
C694        O695   1.267       .  A
C694       C1286   1.474       .  S
O699       Ni705   1.912       .  S
O699        C720   1.266       .  A
O700       Ni723   1.917       .  S
O700        C709   1.268       .  A
O701       Ni705   1.924       .  S
O701       Ni723   1.926       .  S
O701       Ni717   1.932       .  S
O701        H724   0.966       .  S
C702        O719   1.273       .  A
C702        O711   1.280       .  A
C702       C1269   1.492       .  S
O703       Ni722   1.939       .  S
O703        C709   1.276       .  A
O704       Ni722   1.906       .  S
O704        C706   1.269       .  A
Ni705       O708   1.918       .  S
Ni705       O710   1.918       .  S
C706        O716   1.278       .  A
C706       C1246   1.498       .  S
O707       Ni723   1.929       .  S
O707        C713   1.273       .  A
O708        C713   1.268       .  A
C709       C1296   1.500       .  S
O710        C712   1.272       .  A
O711       Ni722   1.939       .  S
C712        O718   1.275       .  A
C712       C1256   1.505       .  S
C713       C1276   1.496       .  S
H714        O715   0.966       .  S
O715       Ni723   1.906       .  S
O715       Ni717   1.897       .  S
O715       Ni722   1.898       .  S
O716       Ni717   1.950       .  S
Ni717       O721   1.918       .  S
Ni717       O719   1.906       .  S
O718       Ni723   1.938       .  S
C720        O721   1.267       .  A
C720       C1236   1.475       .  S
O725       Ni731   1.915       .  S
O725        C746   1.268       .  A
O726       Ni749   1.905       .  S
O726        C735   1.267       .  A
O727       Ni731   1.921       .  S
O727       Ni749   1.916       .  S
O727       Ni743   1.933       .  S
O727        H750   0.966       .  S
C728        O745   1.273       .  A
C728        O737   1.279       .  A
C728       C1216   1.502       .  S
O729       Ni748   1.952       .  S
O729        C735   1.276       .  A
O730       Ni748   1.905       .  S
O730        C732   1.269       .  A
Ni731       O734   1.924       .  S
Ni731       O736   1.909       .  S
C732        O742   1.274       .  A
C732       C1339   1.499       .  S
O733       Ni749   1.912   1_545  S
C735       C1196   1.489       .  S
O736        C738   1.272       .  A
O737       Ni748   1.942       .  S
C738        O744   1.280       .  A
C738       C1329   1.479       .  S
C739       C1206   1.488       .  S
H740        O741   0.966       .  S
O741       Ni749   1.907       .  S
O741       Ni743   1.906       .  S
O741       Ni748   1.917       .  S
O742       Ni743   1.937       .  S
Ni743       O747   1.916       .  S
Ni743       O745   1.920       .  S
O744       Ni749   1.952       .  S
C746        O747   1.268       .  A
C746       C1229   1.475       .  S
O751       Ni757   1.918       .  S
O751        C772   1.267       .  A
O752       Ni775   1.915       .  S
O752        C761   1.272       .  A
O753       Ni757   1.900       .  S
O753       Ni775   1.897       .  S
O753       Ni769   1.923       .  S
O753        H776   0.967       .  S
C754        O771   1.286       .  A
C754        O763   1.280       .  A
C754       C1249   1.495       .  S
O755       Ni774   1.940       .  S
O755        C761   1.273       .  A
O756       Ni774   1.901       .  S
O756        C758   1.267       .  A
Ni757       O762   1.888       .  S
C758        O768   1.271       .  A
C758       C1176   1.480       .  S
O759        C765   1.274   1_545  A
O760        C765   1.277   1_545  A
C761       C1199   1.490       .  S
O762        C764   1.266       .  A
O763       Ni774   1.924       .  S
C764        O770   1.277       .  A
C764       C1186   1.492       .  S
C765       C1259   1.489       .  S
H766        O767   0.966       .  S
O767       Ni775   1.914       .  S
O767       Ni769   1.904       .  S
O767       Ni774   1.889       .  S
O768       Ni769   1.926       .  S
Ni769       O773   1.925       .  S
Ni769       O771   1.953       .  S
O770       Ni775   1.947       .  S
C772        O773   1.271       .  A
C772       C1169   1.473       .  S
O777       Ni783   1.933       .  S
O777        C798   1.274       .  A
O778       Ni801   1.907       .  S
O778        C787   1.269       .  A
O779       Ni783   1.902       .  S
O779       Ni801   1.897       .  S
O779       Ni795   1.920       .  S
O779        H802   0.967       .  S
C780        O797   1.283       .  A
C780        O789   1.278       .  A
C780       C1319   1.489       .  S
O781       Ni800   1.931       .  S
O781        C787   1.273       .  A
O782       Ni800   1.912       .  S
O782        C784   1.269       .  A
Ni783       O786   1.939       .  S
Ni783       O788   1.908       .  S
C784        O794   1.274       .  A
C784       C1219   1.491       .  S
O785       Ni801   1.914       .  S
O785       C2135   1.274   1_455  A
O786       C2135   1.278   1_455  A
C787       C1146   1.476       .  S
O788        C790   1.270       .  A
O789       Ni800   1.918       .  S
C790        O796   1.276       .  A
C790       C1209   1.509       .  S
C791       O2129   1.274       .  A
C791       O2130   1.278       .  A
C791       C1309   1.492       .  S
H792        O793   0.966       .  S
O793       Ni801   1.910       .  S
O793       Ni795   1.896       .  S
O793       Ni800   1.886       .  S
O794       Ni795   1.936       .  S
Ni795       O799   1.908       .  S
Ni795       O797   1.947       .  S
O796       Ni801   1.950       .  S
C798        O799   1.268       .  A
C798       C1156   1.474       .  S
O803       Ni809   1.926       .  S
O803        C824   1.270       .  A
O804       Ni827   1.902       .  S
O804        C813   1.266       .  A
O805       Ni809   1.917       .  S
O805       Ni827   1.915       .  S
O805       Ni821   1.918       .  S
O805        H828   0.966       .  S
C806        O823   1.271       .  A
C806        O815   1.279       .  A
C806       C1179   1.491       .  S
O807       Ni826   1.942       .  S
O807        C813   1.274       .  A
O808       Ni826   1.905       .  S
O808        C810   1.267       .  A
Ni809       O812   1.930       .  S
Ni809       O814   1.908       .  S
C810        O820   1.272       .  A
C810       C1266   1.495       .  S
O811       Ni827   1.892       .  S
O811       C2161   1.261       .  A
O812       C2161   1.272       .  A
C813       C1149   1.481       .  S
O814        C816   1.270       .  A
O815       Ni826   1.930       .  S
C816        O822   1.280       .  A
C816       C1279   1.480       .  S
C817       O2155   1.261       .  A
C817       O2156   1.272       .  A
C817       C1189   1.477       .  S
H818        O819   0.966       .  S
O819       Ni827   1.893       .  S
O819       Ni821   1.898       .  S
O819       Ni826   1.915       .  S
O820       Ni821   1.933       .  S
Ni821       O825   1.905       .  S
Ni821       O823   1.907       .  S
O822       Ni827   1.954       .  S
C824        O825   1.264       .  A
C824       C1136   1.472       .  S
O829       Ni835   1.932       .  S
O829        C850   1.271       .  A
O830       Ni853   1.915       .  S
O830        C839   1.272       .  A
O831       Ni835   1.910       .  S
O831       Ni853   1.904       .  S
O831       Ni847   1.919       .  S
O831        H854   0.966       .  S
C832        O849   1.279       .  A
C832        O841   1.281       .  A
C832       C1106   1.484       .  S
O833       Ni852   1.946       .  S
O833        C839   1.277       .  A
O834       Ni852   1.914       .  S
O834        C836   1.270       .  A
Ni835       O838   1.937       .  S
Ni835       O840   1.900       .  S
C836        O846   1.273       .  A
C836       C1096   1.499       .  S
O837       Ni853   1.906       .  S
O837        C843   1.270       .  A
O838        C843   1.276       .  A
C839       C1126   1.493       .  S
O840        C842   1.268       .  A
O841       Ni852   1.928       .  S
C842        O848   1.276       .  A
C842       C1089   1.503   1_455  S
C843       C1116   1.483       .  S
H844        O845   0.966       .  S
O845       Ni853   1.907       .  S
O845       Ni847   1.900       .  S
O845       Ni852   1.894       .  S
O846       Ni847   1.933       .  S
Ni847       O851   1.907       .  S
Ni847       O849   1.932       .  S
O848       Ni853   1.944       .  S
C850        O851   1.266       .  A
C850       C1159   1.472       .  S
O855       Ni861   1.934       .  S
O855        C876   1.272       .  A
O856       Ni879   1.905       .  S
O856        C865   1.266       .  A
O857       Ni861   1.906       .  S
O857       Ni879   1.912       .  S
O857       Ni873   1.920       .  S
O857        H880   0.966       .  S
C858        O875   1.280       .  A
C858        O867   1.278       .  A
C858       C1066   1.489       .  S
O859       Ni878   1.940       .  S
O859        C865   1.273       .  A
O860       Ni878   1.911       .  S
O860        C862   1.269       .  A
Ni861       O864   1.935       .  S
Ni861       O866   1.900       .  S
C862        O872   1.269       .  A
C862       C1049   1.475       .  S
O863       Ni879   1.913       .  S
O863        C869   1.270       .  A
O864        C869   1.276       .  A
C865       C1129   1.480       .  S
O866        C868   1.269       .  A
O867       Ni878   1.926       .  S
C868        O874   1.275       .  A
C868       C1059   1.470       .  S
C869       C1079   1.494       .  S
H870        O871   0.965       .  S
O871       Ni879   1.906       .  S
O871       Ni873   1.903       .  S
O871       Ni878   1.903       .  S
O872       Ni873   1.918       .  S
Ni873       O877   1.909       .  S
Ni873       O875   1.931       .  S
O874       Ni879   1.941       .  S
C876        O877   1.267       .  A
C876       C1166   1.476       .  S
O881       Ni887   1.911       .  S
O881        C902   1.267       .  A
O882       Ni905   1.913       .  S
O882        C891   1.270       .  A
O883       Ni887   1.918       .  S
O883       Ni905   1.919       .  S
O883       Ni899   1.933       .  S
O883        H906   0.966       .  S
C884        O901   1.272       .  A
C884        O893   1.280       .  A
C884       C1039   1.488       .  S
O885       Ni904   1.934       .  S
O885        C891   1.273       .  A
O886       Ni904   1.895       .  S
O886        C888   1.268       .  A
Ni887       O890   1.922       .  S
Ni887       O892   1.911       .  S
C888        O898   1.279       .  A
C888       C1109   1.488       .  S
O889       Ni905   1.925   1_655  S
O889       C2239   1.273       .  A
O890       C2239   1.269   1_455  A
C891       C1016   1.479       .  S
O892        C894   1.271       .  A
O893       Ni904   1.936       .  S
C894        O900   1.276       .  A
C894       C1119   1.496       .  S
C895       O2233   1.273       .  A
C895       O2234   1.269       .  A
C895       C1026   1.493       .  S
H896        O897   0.965       .  S
O897       Ni905   1.908       .  S
O897       Ni899   1.895       .  S
O897       Ni904   1.894       .  S
O898       Ni899   1.945       .  S
Ni899       O903   1.918       .  S
Ni899       O901   1.906       .  S
O900       Ni905   1.937       .  S
C902        O903   1.268       .  A
C902       C1226   1.474       .  S
O907       Ni913   1.914       .  S
O907        C928   1.263       .  A
O908       Ni931   1.918       .  S
O908        C917   1.271       .  A
O909       Ni913   1.902       .  S
O909       Ni931   1.906       .  S
O909       Ni925   1.909       .  S
O909        H932   0.967       .  S
C910        O927   1.277       .  A
C910        O919   1.281       .  A
C910       C1046   1.477       .  S
O911       Ni930   1.945       .  S
O911        C917   1.278       .  A
O912       Ni930   1.914       .  S
O912        C914   1.271       .  A
Ni913       O916   1.909       .  S
Ni913       O918   1.903       .  S
C914        O924   1.272       .  A
C914       C1009   1.498       .  S
O915       Ni931   1.929       .  S
O915       C2265   1.280       .  A
O916       C2265   1.275       .  A
C917       C1019   1.505       .  S
O918        C920   1.268       .  A
O919       Ni930   1.934       .  S
C920        O926   1.269       .  A
C920        C999   1.488       .  S
C921       O2259   1.280       .  A
C921       O2260   1.275       .  A
C921       C1056   1.478   1_655  S
H922        O923   0.966       .  S
O923       Ni931   1.905       .  S
O923       Ni925   1.897       .  S
O923       Ni930   1.889       .  S
O924       Ni925   1.930       .  S
Ni925       O929   1.923       .  S
Ni925       O927   1.912       .  S
O926       Ni931   1.923       .  S
C928        O929   1.266       .  A
C928       C1239   1.474       .  S
O933       Ni939   1.920       .  S
O933        C954   1.270       .  A
O934       Ni957   1.902       .  S
O934        C943   1.266       .  A
O935       Ni939   1.916       .  S
O935       Ni957   1.910       .  S
O935       Ni951   1.927       .  S
O935        H958   0.966       .  S
C936        O953   1.276       .  A
C936        O945   1.277       .  A
C936       C1099   1.508       .  S
O937       Ni956   1.938       .  S
O937        C943   1.273       .  A
O938       Ni956   1.906       .  S
O938        C940   1.269       .  A
Ni939       O942   1.929       .  S
Ni939       O944   1.909       .  S
C940        O950   1.273       .  A
C940       C1036   1.485       .  S
O941       Ni957   1.916       .  S
C943        C986   1.479       .  S
O944        C946   1.271       .  A
O945       Ni956   1.929       .  S
C946        O952   1.277       .  A
C946       C1029   1.477       .  S
C947       C1086   1.483       .  S
H948        O949   0.976       .  S
O949       Ni957   1.909       .  S
O949       Ni951   1.899       .  S
O949       Ni956   1.912       .  S
O950       Ni951   1.928       .  S
Ni951       O955   1.908       .  S
Ni951       O953   1.930       .  S
O952       Ni957   1.946       .  S
C954        O955   1.266       .  A
C954       C1289   1.468       .  S
O959       Ni965   1.914       .  S
O959        C980   1.270       .  A
O960       Ni983   1.904       .  S
O960        C969   1.268       .  A
O961       Ni965   1.920       .  S
O961       Ni983   1.908       .  S
O961       Ni977   1.936       .  S
O961        H984   0.966       .  S
C962        O979   1.275       .  A
C962        O971   1.281       .  A
C962       C1006   1.497       .  S
O963       Ni982   1.942       .  S
O963        C969   1.274       .  A
O964       Ni982   1.891       .  S
O964        C966   1.267       .  A
Ni965       O970   1.906       .  S
C966        O976   1.277       .  A
C966       C1069   1.488       .  S
O967        C973   1.263       .  A
O968        C973   1.268       .  A
C969        C989   1.486       .  S
O970        C972   1.272       .  A
O971       Ni982   1.936       .  S
C972        O978   1.282       .  A
C972       C1076   1.513       .  S
C973        C996   1.480       .  S
H974        O975   0.966       .  S
O975       Ni983   1.899       .  S
O975       Ni977   1.898       .  S
O975       Ni982   1.897       .  S
O976       Ni977   1.949       .  S
Ni977       O981   1.913       .  S
Ni977       O979   1.916       .  S
O978       Ni983   1.963       .  S
C980        O981   1.269       .  A
C980       C1139   1.473       .  S
C985        C990   1.408       .  A
C985       Br992   1.925       .  S
C986        C987   1.407   1_554  A
C987        C988   1.408       .  A
C987       Br994   1.932       .  S
C988       Br993   1.922       .  S
C989        C990   1.411   1_556  A
C990       Br991   1.931       .  S
C995        C996   1.409       .  A
C995       C1000   1.407       .  A
C996        C997   1.408       .  A
C997        C998   1.408       .  A
C997      Br1004   1.929       .  S
C998        C999   1.416       .  A
C998      Br1003   1.933       .  S
C999       C1000   1.417       .  A
C1000     Br1001   1.935       .  S
C1005      C1006   1.420       .  A
C1005      C1010   1.408       .  A
C1005     Br1012   1.935       .  S
C1006      C1007   1.417       .  A
C1007      C1008   1.413       .  A
C1007     Br1014   1.932       .  S
C1008      C1009   1.413       .  A
C1008     Br1013   1.932       .  S
C1009      C1010   1.413       .  A
C1010     Br1011   1.932       .  S
C1015      C1016   1.404       .  A
C1015      C1020   1.412   1_454  A
C1015     Br1022   1.932       .  S
C1016      C2361   1.406   1_455  A
C1017      C2360   1.406       .  A
C1017      C1018   1.411       .  A
C1017     Br1024   1.932       .  S
C1018      C1019   1.422   1_554  A
C1018     Br1023   1.934       .  S
C1019      C2364   1.424       .  A
C1020      C2363   1.424       .  A
C1020     Br1021   1.926   1_655  S
C1025      C1026   1.419       .  A
C1025      C1030   1.400       .  A
C1025     Br2376   1.930       .  S
C1026      C1027   1.415       .  A
C1027      C1028   1.417       .  A
C1027     Br1034   1.927       .  S
C1028      C1029   1.410       .  A
C1028     Br1033   1.926       .  S
C1029      C1030   1.404       .  A
C1030     Br1031   1.933       .  S
Br1032     C2369   1.930   1_455  S
C1035      C1036   1.413       .  A
C1035      C1040   1.412       .  A
C1035     Br1042   1.932       .  S
C1036      C1037   1.411       .  A
C1037      C1038   1.405       .  A
C1037     Br1044   1.929       .  S
C1038      C1039   1.419       .  A
C1038     Br1043   1.940       .  S
C1039      C1040   1.413       .  A
C1040     Br1041   1.930       .  S
C1045      C1046   1.412       .  A
C1045      C1050   1.409       .  A
C1045     Br1052   1.928       .  S
C1046      C1047   1.408       .  A
C1047      C1048   1.403       .  A
C1047     Br1054   1.930       .  S
C1048      C1049   1.414       .  A
C1048     Br1053   1.931       .  S
C1049      C1050   1.408       .  A
C1050     Br1051   1.929       .  S
C1055      C1056   1.412       .  A
C1055      C1060   1.414       .  A
C1055     Br1062   1.927       .  S
C1056      C1057   1.414       .  A
C1057      C1058   1.397       .  A
C1057     Br2408   1.936   1_455  S
C1060     Br1061   1.925       .  S
Br1064     C2401   1.936       .  S
C1065      C1066   1.416       .  A
C1065      C1070   1.419       .  A
C1065     Br1072   1.927       .  S
C1066      C1067   1.415       .  A
C1067      C1068   1.401       .  A
C1067     Br1074   1.936       .  S
C1068      C1069   1.412       .  A
C1068     Br1073   1.939       .  S
C1069      C1070   1.412       .  A
C1070     Br1071   1.926       .  S
C1075      C2420   1.422       .  A
C1075      C1080   1.414   1_655  A
C1075     Br2426   1.933       .  S
C1076      C2419   1.422       .  A
C1076      C2421   1.424       .  A
C1077      C2420   1.424   1_455  A
C1077      C1078   1.412       .  A
C1077     Br2428   1.935   1_455  S
C1078      C1079   1.409       .  A
C1078     Br1083   1.933       .  S
C1079      C1080   1.415       .  A
C1080     Br1081   1.933       .  S
Br1082     C2419   1.933       .  S
Br1084     C2421   1.935       .  S
C1085      C1086   1.408       .  A
C1085      C1090   1.408       .  A
C1085     Br1092   1.934       .  S
C1086      C1087   1.412       .  A
C1087      C1088   1.410       .  A
C1088      C2433   1.417       .  A
C1088     Br2437   1.932       .  S
C1089      C2432   1.417       .  A
C1089      C2434   1.421       .  A
C1090      C2433   1.421       .  A
C1090     Br1091   1.936       .  S
Br1093     C2432   1.932       .  S
C1095      C1096   1.414       .  A
C1095      C1100   1.413       .  A
C1095     Br1102   1.934       .  S
C1096      C1097   1.418       .  A
C1097      C1098   1.413       .  A
C1097     Br1104   1.933       .  S
C1098      C1099   1.419       .  A
C1098     Br1103   1.932       .  S
C1099      C1100   1.418       .  A
C1100     Br1101   1.934       .  S
C1105      C1106   1.414       .  A
C1105      C1110   1.418       .  A
C1105     Br1112   1.926       .  S
C1106      C1107   1.407       .  A
C1107      C1108   1.401       .  A
C1107     Br1114   1.937       .  S
C1108      C1109   1.419       .  A
C1108     Br1113   1.935       .  S
C1109      C1110   1.412       .  A
C1110     Br1111   1.928       .  S
C1115      C1116   1.410       .  A
C1115      C1120   1.409       .  A
C1115     Br1122   1.930       .  S
C1116      C1117   1.408       .  A
C1117      C1118   1.411       .  A
C1117     Br1124   1.929       .  S
C1118     Br1123   1.931       .  S
C1125      C1126   1.417       .  A
C1125      C1130   1.411       .  A
C1125     Br1132   1.920       .  S
C1126      C1127   1.413   1_554  A
C1127      C1128   1.411       .  A
C1127     Br1134   1.930       .  S
C1128      C1129   1.410       .  A
C1128     Br1133   1.927       .  S
C1129      C1130   1.405   1_556  A
C1130     Br1131   1.932       .  S
C1135      C1136   1.407       .  A
C1135      C1140   1.407       .  A
C1135     Br1142   1.927       .  S
C1136      C1137   1.408       .  A
C1137      C1138   1.407       .  A
C1137     Br1144   1.929       .  S
C1138      C1139   1.410       .  A
C1138     Br1143   1.929       .  S
C1139      C1140   1.408       .  A
C1140     Br1141   1.927       .  S
C1145      C1146   1.407       .  A
C1145      C1150   1.406       .  A
C1145     Br1152   1.934       .  S
C1146      C2491   1.411   1_455  A
C1147      C2490   1.411       .  A
C1147      C1148   1.409       .  A
C1147     Br1154   1.927       .  S
C1148      C1149   1.409       .  A
C1148     Br1153   1.930       .  S
C1149      C2494   1.413       .  A
C1150      C2493   1.413   1_455  A
C1150     Br1151   1.922       .  S
C1155      C1156   1.406       .  A
C1155      C1160   1.406       .  A
C1155     Br1162   1.927       .  S
C1156      C1157   1.411       .  A
C1157      C1158   1.409       .  A
C1157     Br1164   1.929       .  S
C1158      C1159   1.408       .  A
C1158     Br1163   1.928       .  S
C1159      C1160   1.408       .  A
C1160     Br1161   1.929       .  S
C1165      C1166   1.411       .  A
C1165      C1170   1.410       .  A
C1165     Br1172   1.929       .  S
C1166      C1167   1.409       .  A
C1167      C1168   1.408       .  A
C1167     Br1174   1.929       .  S
C1168      C1169   1.410       .  A
C1168     Br1173   1.930       .  S
C1169      C1170   1.407       .  A
C1170     Br1171   1.927       .  S
C1175      C1176   1.411       .  A
C1175      C1180   1.408       .  A
C1175     Br1182   1.935       .  S
C1176      C1177   1.411       .  A
C1177      C1178   1.406       .  A
C1177     Br1184   1.934       .  S
C1178      C1179   1.415       .  A
C1178     Br1183   1.934       .  S
C1179      C1180   1.420       .  A
C1180     Br1181   1.930       .  S
C1185      C1186   1.415       .  A
C1185      C1190   1.410       .  A
C1185     Br1192   1.928       .  S
C1186      C1187   1.420       .  A
C1187      C1188   1.405       .  A
C1187     Br1194   1.934       .  S
C1188      C1189   1.403       .  A
C1188     Br1193   1.931       .  S
C1189      C1190   1.413       .  A
C1190     Br2535   1.932       .  S
Br1191     C2534   1.932       .  S
C1195      C1196   1.414   1_545  A
C1195     Br1202   1.923       .  S
C1196      C1197   1.410       .  A
C1197     Br1204   1.929       .  S
C1198      C1199   1.414       .  A
C1198     Br1203   1.926       .  S
C1199      C1200   1.411       .  A
C1200     Br1201   1.931       .  S
C1205      C1206   1.407       .  A
C1205      C1210   1.410       .  A
C1205     Br1212   1.931       .  S
C1206      C1207   1.411       .  A
C1207      C1208   1.416       .  A
C1208      C1209   1.423       .  A
C1208     Br1213   1.929       .  S
C1209      C1210   1.421       .  A
C1210     Br1211   1.935       .  S
C1215      C1216   1.419       .  A
C1215      C1220   1.412       .  A
C1215     Br1222   1.927       .  S
C1216      C1217   1.415       .  A
C1217      C1218   1.413       .  A
C1217     Br1224   1.931       .  S
C1218      C1219   1.412       .  A
C1218     Br1223   1.932       .  S
C1219      C1220   1.413       .  A
C1220     Br1221   1.933       .  S
C1225      C1226   1.408       .  A
C1225      C1230   1.409       .  A
C1225     Br1232   1.928       .  S
C1226      C1227   1.410       .  A
C1227      C1228   1.409       .  A
C1227     Br1234   1.929       .  S
C1228      C1229   1.408       .  A
C1228     Br1233   1.928       .  S
C1229      C1230   1.410       .  A
C1230     Br1231   1.929       .  S
C1235      C1236   1.409       .  A
C1235      C1240   1.409       .  A
C1235     Br1242   1.928       .  S
C1236      C1237   1.408       .  A
C1237      C1238   1.409       .  A
C1237     Br1244   1.927       .  S
C1238      C1239   1.410       .  A
C1238     Br1243   1.931       .  S
C1239      C1240   1.408       .  A
C1240     Br1241   1.928       .  S
C1245      C1246   1.418       .  A
C1245      C1250   1.407       .  A
C1245     Br1252   1.936       .  S
C1246      C1247   1.414       .  A
C1247      C1248   1.421       .  A
C1247     Br1254   1.926       .  S
C1248      C1249   1.414       .  A
C1248     Br1253   1.927       .  S
C1249      C1250   1.413       .  A
C1250     Br1251   1.937       .  S
C1255      C2600   1.419       .  A
C1255      C1260   1.413       .  A
C1255     Br1262   1.933       .  S
C1256      C2599   1.419       .  A
C1256      C2601   1.418       .  A
C1257      C2600   1.418       .  A
C1257      C1258   1.405       .  A
C1257     Br2608   1.936       .  S
C1258      C1259   1.412       .  A
C1259      C1260   1.414       .  A
C1260     Br1261   1.933       .  S
Br1264     C2601   1.936       .  S
C1265      C1266   1.415       .  A
C1265      C1270   1.407       .  A
C1265     Br1272   1.929       .  S
C1266      C1267   1.416       .  A
C1267      C1268   1.413       .  A
C1267     Br1274   1.934       .  S
C1268      C1269   1.415       .  A
C1268     Br1273   1.933       .  S
C1269      C1270   1.418       .  A
C1270     Br1271   1.940       .  S
C1275      C1276   1.419       .  A
C1275      C1280   1.401   1_565  A
C1275     Br1282   1.933       .  S
C1276      C1277   1.417       .  A
C1277      C1278   1.421       .  A
C1277     Br1284   1.928       .  S
C1278     Br1283   1.926   1_565  S
C1285      C1286   1.410       .  A
C1285      C1290   1.404       .  A
C1285     Br1292   1.930       .  S
C1286      C1287   1.409       .  A
C1287      C1288   1.409       .  A
C1287     Br1294   1.928       .  S
C1288      C1289   1.408       .  A
C1288     Br1293   1.928       .  S
C1289      C1290   1.405       .  A
C1290     Br1291   1.930       .  S
C1295      C1296   1.422       .  A
C1295      C1300   1.413       .  A
C1295     Br1302   1.926       .  S
C1296      C1297   1.416       .  A
C1297      C1298   1.406       .  A
C1297     Br1304   1.933       .  S
C1298      C1299   1.405       .  A
C1298     Br1303   1.928       .  S
C1299      C1300   1.406       .  A
C1300     Br1301   1.931       .  S
C1305      C1310   1.413       .  A
C1305     Br1312   1.934       .  S
C1307      C1308   1.410       .  A
C1308      C1309   1.411       .  A
C1308     Br2657   1.931       .  S
C1309      C1310   1.412       .  A
C1310     Br1311   1.933       .  S
Br1313     C2652   1.931       .  S
C1315      C1316   1.417       .  A
C1315      C1320   1.403       .  A
C1315     Br1322   1.936       .  S
C1316      C1317   1.415       .  A
C1317      C1318   1.419       .  A
C1317     Br1324   1.928       .  S
C1318      C1319   1.414       .  A
C1318     Br1323   1.927       .  S
C1319      C1320   1.412       .  A
C1320     Br1321   1.939       .  S
C1325      C1326   1.415       .  A
C1325      C1330   1.399       .  A
C1325     Br1332   1.927       .  S
C1326      C1327   1.416       .  A
C1327      C1328   1.418       .  A
C1327     Br1334   1.924       .  S
C1328      C2673   1.410       .  A
C1328     Br1333   1.927       .  S
C1329      C2672   1.410   1_455  A
C1329      C2674   1.405       .  A
C1330      C2673   1.405       .  A
C1330     Br2675   1.930       .  S
Br1331     C2674   1.930       .  S
C1335      C1336   1.413       .  A
C1335      C1340   1.407       .  A
C1335     Br1342   1.937       .  S
C1336      C1337   1.413       .  A
C1337      C1338   1.412       .  A
C1337     Br1344   1.932       .  S
C1338      C1339   1.418       .  A
C1338     Br1343   1.935       .  S
C1339      C1340   1.417       .  A
C1340     Br1341   1.928       .  S
O1345     Ni1351   1.915       .  S
O1345      C1366   1.268       .  A
O1346     Ni1369   1.913       .  S
O1346      C1355   1.267       .  A
O1347     Ni1351   1.916       .  S
O1347     Ni1369   1.919       .  S
O1347     Ni1363   1.922       .  S
O1347      H1370   0.967       .  S
C1348      O1365   1.276       .  A
C1348      O1357   1.282       .  A
C1348      C2008   1.494       .  S
O1349     Ni1368   1.946       .  S
O1349      C1355   1.276       .  A
O1350     Ni1368   1.904       .  S
O1350      C1352   1.269       .  A
Ni1351     O1354   1.914       .  S
Ni1351     O1356   1.924       .  S
C1352      O1362   1.274       .  A
C1352      C1988   1.485       .  S
O1353     Ni1369   1.920       .  S
O1353      C1359   1.272       .  A
O1354      C1359   1.269       .  A
C1355      C1971   1.508       .  S
O1356      C1358   1.273       .  A
O1357     Ni1368   1.935       .  S
C1358      O1364   1.272       .  A
C1358      C1978   1.510       .  S
C1359      C1998   1.487       .  S
H1360      O1361   0.966       .  S
O1361     Ni1369   1.901       .  S
O1361     Ni1363   1.897       .  S
O1361     Ni1368   1.894       .  S
O1362     Ni1363   1.933       .  S
Ni1363     O1367   1.917       .  S
Ni1363     O1365   1.914       .  S
O1364     Ni1369   1.935       .  S
C1366      O1367   1.268       .  A
C1366      C1958   1.474       .  S
O1371     Ni1377   1.910       .  S
O1371      C1392   1.267       .  A
O1372     Ni1395   1.908       .  S
O1372      C1381   1.268       .  A
O1373     Ni1377   1.918       .  S
O1373     Ni1395   1.917       .  S
O1373     Ni1389   1.935       .  S
O1373      H1396   0.966       .  S
C1374      O1391   1.276       .  A
C1374      O1383   1.281       .  A
C1374      C1941   1.496       .  S
O1375     Ni1394   1.942       .  S
O1375      C1381   1.275       .  A
O1376     Ni1394   1.902       .  S
O1376      C1378   1.269       .  A
Ni1377     O1380   1.924       .  S
Ni1377     O1382   1.913       .  S
C1378      O1388   1.279       .  A
C1378      C1918   1.492       .  S
O1379     Ni1395   1.927       .  S
O1379      C1385   1.270       .  A
O1380      C1385   1.269       .  A
C1381      C1968   1.480       .  S
O1382      C1384   1.271       .  A
O1383     Ni1394   1.938       .  S
C1384      O1390   1.279       .  A
C1384      C1928   1.506   1_655  S
C1385      C1948   1.490       .  S
H1386      O1387   0.965       .  S
O1387     Ni1395   1.907       .  S
O1387     Ni1389   1.897       .  S
O1387     Ni1394   1.897       .  S
O1388     Ni1389   1.947       .  S
Ni1389     O1393   1.923       .  S
Ni1389     O1391   1.915       .  S
O1390     Ni1395   1.949       .  S
C1392      O1393   1.270       .  A
C1392      C1908   1.475       .  S
O1397     Ni1403   1.922       .  S
O1397      C1418   1.269       .  A
O1398     Ni1421   1.906       .  S
O1398      C1407   1.268       .  A
O1399     Ni1403   1.917       .  S
O1399     Ni1421   1.920       .  S
O1399     Ni1415   1.926       .  S
O1399      H1422   0.966       .  S
C1400      O1417   1.272       .  A
C1400      O1409   1.279       .  A
C1400      C1888   1.502       .  S
O1401     Ni1420   1.950       .  S
O1401      C1407   1.276       .  A
O1402     Ni1420   1.907       .  S
O1402      C1404   1.270       .  A
Ni1403     O1406   1.921       .  S
Ni1403     O1408   1.907       .  S
C1404      O1414   1.271       .  A
C1404      C2011   1.493       .  S
O1405     Ni1421   1.918       .  S
O1405      C2083   1.268       .  A
O1406      C2083   1.269       .  A
C1407      C1868   1.489       .  S
O1408      C1410   1.272       .  A
O1409     Ni1420   1.943       .  S
C1410      O1416   1.278       .  A
C1410      C2001   1.476       .  S
C1411      O2077   1.265       .  A
C1411      O2078   1.267   1_545  A
C1411      C1878   1.483       .  S
H1412      O1413   0.966       .  S
O1413     Ni1421   1.912       .  S
O1413     Ni1415   1.910       .  S
O1413     Ni1420   1.921       .  S
O1414     Ni1415   1.929       .  S
Ni1415     O1419   1.912       .  S
Ni1415     O1417   1.918       .  S
O1416     Ni1421   1.949       .  S
C1418      O1419   1.266       .  A
C1418      C1901   1.476       .  S
O1423     Ni1429   1.923       .  S
O1423      C1444   1.268       .  A
O1424     Ni1447   1.911       .  S
O1424      C1433   1.270       .  A
O1425     Ni1429   1.904       .  S
O1425     Ni1447   1.898       .  S
O1425     Ni1441   1.916       .  S
O1425      H1448   0.967       .  S
C1426      O1443   1.280       .  A
C1426      O1435   1.280       .  A
C1426      C1921   1.487       .  S
O1427     Ni1446   1.941       .  S
O1427      C1433   1.276       .  A
O1428     Ni1446   1.906       .  S
O1428      C1430   1.269       .  A
Ni1429     O2104   1.933       .  S
Ni1429     O1434   1.893       .  S
C1430      O1440   1.273       .  A
C1430      C1848   1.486       .  S
O1431     Ni2119   1.915       .  S
O1431      C1437   1.274       .  A
O1432     Ni2101   1.933       .  S
O1432      C1437   1.278       .  A
C1433      C1871   1.487       .  S
O1434      C1436   1.266       .  A
O1435     Ni1446   1.927       .  S
C1436      O1442   1.273       .  A
C1436      C1858   1.493       .  S
C1437      C1931   1.491       .  S
H1438      O1439   0.966       .  S
O1439     Ni1447   1.912       .  S
O1439     Ni1441   1.900       .  S
O1439     Ni1446   1.891       .  S
O1440     Ni1441   1.930       .  S
Ni1441     O1445   1.912       .  S
Ni1441     O1443   1.937       .  S
O1442     Ni1447   1.940       .  S
C1444      O1445   1.267       .  A
C1444      C1841   1.467       .  S
Ni1447     O2103   1.914       .  S
O1449     Ni1455   1.926       .  S
O1449      C1470   1.271       .  A
O1450     Ni1473   1.914       .  S
O1450      C1459   1.271       .  A
O1451     Ni1455   1.904       .  S
O1451     Ni1473   1.898       .  S
O1451     Ni1467   1.918       .  S
O1451      H1474   0.967       .  S
C1452      O1469   1.281       .  A
C1452      O1461   1.277       .  A
C1452      C1991   1.478       .  S
O1453     Ni1472   1.923       .  S
O1453      C1459   1.270       .  A
O1454     Ni1472   1.907       .  S
O1454      C1456   1.269       .  A
Ni1455     O1458   1.938       .  S
Ni1455     O1460   1.904       .  S
C1456      O1466   1.275       .  A
C1456      C1891   1.494       .  S
O1457     Ni1473   1.921       .  S
C1459      C1818   1.474       .  S
O1460      C1462   1.268       .  A
O1461     Ni1472   1.915       .  S
C1462      O1468   1.278       .  A
C1462      C1881   1.500       .  S
C1463      C1981   1.500       .  S
H1464      O1465   0.966       .  S
O1465     Ni1473   1.913       .  S
O1465     Ni1467   1.900       .  S
O1465     Ni1472   1.891       .  S
O1466     Ni1467   1.940       .  S
Ni1467     O1471   1.911       .  S
Ni1467     O1469   1.940       .  S
O1468     Ni1473   1.951       .  S
C1470      O1471   1.268       .  A
C1470      C1828   1.472       .  S
O1475     Ni1481   1.924       .  S
O1475      C1496   1.270       .  A
O1476     Ni1499   1.899       .  S
O1476      C1485   1.266       .  A
O1477     Ni1481   1.916       .  S
O1477     Ni1499   1.912       .  S
O1477     Ni1493   1.914       .  S
O1477      H1500   0.966       .  S
C1478      O1495   1.272       .  A
C1478      O1487   1.279       .  A
C1478      C1851   1.496       .  S
O1479     Ni1498   1.940       .  S
O1479      C1485   1.275       .  A
O1480     Ni1498   1.917       .  S
O1480      C1482   1.270       .  A
Ni1481     O1484   1.926   1_655  S
Ni1481     O1486   1.910       .  S
C1482      O1492   1.272       .  A
C1482      C1938   1.496       .  S
O1483     Ni1499   1.902   1_455  S
C1485      C1821   1.476       .  S
O1486      C1488   1.271       .  A
O1487     Ni1498   1.931       .  S
C1488      O1494   1.278       .  A
C1488      C1951   1.484       .  S
C1489      C1861   1.480       .  S
H1490      O1491   0.966       .  S
O1491     Ni1499   1.897       .  S
O1491     Ni1493   1.895       .  S
O1491     Ni1498   1.912       .  S
O1492     Ni1493   1.931       .  S
Ni1493     O1497   1.898       .  S
Ni1493     O1495   1.913       .  S
O1494     Ni1499   1.952       .  S
C1496      O1497   1.262       .  A
C1496      C1808   1.464       .  S
O1501     Ni1507   1.926       .  S
O1501      C1522   1.269       .  A
O1502     Ni1525   1.907       .  S
O1502      C1511   1.267       .  A
O1503     Ni1507   1.909       .  S
O1503     Ni1525   1.898       .  S
O1503     Ni1519   1.907       .  S
O1503      H1526   0.966       .  S
C1504      O1521   1.276       .  A
C1504      O1513   1.278       .  A
C1504      C1778   1.472       .  S
O1505     Ni1524   1.941       .  S
O1505      C1511   1.275       .  A
O1506     Ni1524   1.915       .  S
O1506      C1508   1.270       .  A
Ni1507     O1510   1.929       .  S
Ni1507     O1512   1.902       .  S
C1508      O1518   1.270       .  A
C1508      C1768   1.496       .  S
O1509     Ni1525   1.896       .  S
O1509      C1515   1.268       .  A
O1510      C1515   1.276       .  A
C1511      C1798   1.481       .  S
O1512      C1514   1.268       .  A
O1513     Ni1524   1.920       .  S
C1514      O1520   1.275       .  A
C1514      C1761   1.503       .  S
C1515      C1788   1.475       .  S
H1516      O1517   0.966       .  S
O1517     Ni1525   1.901       .  S
O1517     Ni1519   1.900       .  S
O1517     Ni1524   1.900       .  S
O1518     Ni1519   1.925       .  S
Ni1519     O1523   1.903       .  S
Ni1519     O1521   1.921       .  S
O1520     Ni1525   1.941       .  S
C1522      O1523   1.264       .  A
C1522      C1831   1.466       .  S
O1527     Ni1533   1.934       .  S
O1527      C1548   1.274       .  A
O1528     Ni1551   1.915       .  S
O1528      C1537   1.270       .  A
O1529     Ni1533   1.907       .  S
O1529     Ni1551   1.909       .  S
O1529     Ni1545   1.922       .  S
O1529      H1552   0.966       .  S
C1530      O1547   1.278       .  A
C1530      O1539   1.278       .  A
C1530      C1738   1.489       .  S
O1531     Ni1550   1.933       .  S
O1531      C1537   1.272       .  A
O1532     Ni1550   1.908       .  S
O1532      C1534   1.269       .  A
Ni1533     O1536   1.934       .  S
Ni1533     O1538   1.907       .  S
C1534      O1544   1.267       .  A
C1534      C1721   1.479       .  S
O1535     Ni1551   1.914       .  S
O1535      C1541   1.270       .  A
O1536      C1541   1.273       .  A
C1537      C1801   1.486       .  S
O1538      C1540   1.272       .  A
O1539     Ni1550   1.930       .  S
C1540      O1546   1.278       .  A
C1540      C1731   1.472   1_545  S
C1541      C1751   1.492       .  S
H1542      O1543   0.965       .  S
O1543     Ni1551   1.911       .  S
O1543     Ni1545   1.897       .  S
O1543     Ni1550   1.903       .  S
O1544     Ni1545   1.915       .  S
Ni1545     O1549   1.895       .  S
Ni1545     O1547   1.933       .  S
O1546     Ni1551   1.944       .  S
C1548      O1549   1.262       .  A
C1548      C1838   1.467       .  S
O1553     Ni1559   1.920       .  S
O1553      C1574   1.266       .  A
O1554     Ni1577   1.914       .  S
O1554      C1563   1.270       .  A
O1555     Ni1559   1.908       .  S
O1555     Ni1577   1.912       .  S
O1555     Ni1571   1.906       .  S
O1555      H1578   0.966       .  S
C1556      O1573   1.271       .  A
C1556      O1565   1.284       .  A
C1556      C1711   1.489       .  S
O1557     Ni1576   1.946       .  S
O1557      C1563   1.275       .  A
O1558     Ni1576   1.891       .  S
O1558      C1560   1.266       .  A
Ni1559     O1562   1.910       .  S
Ni1559     O1564   1.914       .  S
C1560      O1570   1.280       .  A
C1560      C1781   1.487       .  S
O1561     Ni1577   1.924       .  S
C1563      C1688   1.488       .  S
O1564      C1566   1.270       .  A
O1565     Ni1576   1.945       .  S
C1566      O1572   1.269       .  A
C1566      C1791   1.493       .  S
C1567      C1698   1.486       .  S
H1568      O1569   0.966       .  S
O1569     Ni1577   1.910       .  S
O1569     Ni1571   1.901       .  S
O1569     Ni1576   1.888       .  S
O1570     Ni1571   1.948       .  S
Ni1571     O1575   1.922       .  S
Ni1571     O1573   1.899       .  S
O1572     Ni1577   1.925       .  S
C1574      O1575   1.267       .  A
C1574      C1898   1.474       .  S
O1579     Ni1585   1.914       .  S
O1579      C1600   1.263       .  A
O1580     Ni1603   1.923       .  S
O1580      C1589   1.273       .  A
O1581     Ni1585   1.904       .  S
O1581     Ni1603   1.911       .  S
O1581     Ni1597   1.911       .  S
O1581      H1604   0.966       .  S
C1582      O1599   1.279       .  A
C1582      O1591   1.283       .  A
C1582      C1718   1.486       .  S
O1583     Ni1602   1.951       .  S
O1583      C1589   1.279       .  A
O1584     Ni1602   1.915       .  S
O1584      C1586   1.270       .  A
Ni1585     O1588   1.908       .  S
Ni1585     O1590   1.902       .  S
C1586      O1596   1.271       .  A
C1586      C1681   1.500       .  S
O1587     Ni1603   1.921       .  S
C1589      C1691   1.514       .  S
O1590      C1592   1.268       .  A
O1591     Ni1602   1.937       .  S
C1592      O1598   1.273       .  A
C1592      C1671   1.496       .  S
C1593      C1728   1.473       .  S
H1594      O1595   0.966       .  S
O1595     Ni1603   1.901       .  S
O1595     Ni1597   1.898       .  S
O1595     Ni1602   1.891       .  S
O1596     Ni1597   1.932       .  S
Ni1597     O1601   1.925       .  S
Ni1597     O1599   1.914       .  S
O1598     Ni1603   1.936       .  S
C1600      O1601   1.267       .  A
C1600      C1911   1.477       .  S
O1605     Ni1611   1.915       .  S
O1605      C1626   1.268       .  A
O1606     Ni1629   1.900       .  S
O1606      C1615   1.266       .  A
O1607     Ni1611   1.912       .  S
O1607     Ni1629   1.916       .  S
O1607     Ni1623   1.923       .  S
O1607      H1630   0.967       .  S
C1608      O1625   1.274       .  A
C1608      O1617   1.277       .  A
C1608      C1771   1.497       .  S
O1609     Ni1628   1.936       .  S
O1609      C1615   1.272       .  A
O1610     Ni1628   1.907       .  S
O1610      C1612   1.268       .  A
Ni1611     O1614   1.924       .  S
Ni1611     O1616   1.900       .  S
C1612      O1622   1.271       .  A
C1612      C1708   1.482       .  S
O1613     Ni1629   1.907       .  S
O1613      C2291   1.265       .  A
O1614      C2291   1.269       .  A
C1615      C1658   1.477       .  S
O1616      C1618   1.269       .  A
O1617     Ni1628   1.927       .  S
C1618      O1624   1.279       .  A
C1618      C1701   1.477       .  S
C1619      O2285   1.269   1_545  A
C1619      O2286   1.271   1_545  A
C1619      C1758   1.489       .  S
H1620      O1621   0.956       .  S
O1621     Ni1629   1.902       .  S
O1621     Ni1623   1.905       .  S
O1621     Ni1628   1.915       .  S
O1622     Ni1623   1.926       .  S
Ni1623     O1627   1.913       .  S
Ni1623     O1625   1.918       .  S
O1624     Ni1629   1.956       .  S
C1626      O1627   1.267       .  A
C1626      C1961   1.471       .  S
O1631     Ni1637   1.910       .  S
O1631      C1652   1.269       .  A
O1632     Ni1655   1.912       .  S
O1632      C1641   1.270       .  A
O1633     Ni1637   1.919       .  S
O1633     Ni1655   1.911       .  S
O1633     Ni1649   1.939       .  S
O1633      H1656   0.966       .  S
C1634      O1651   1.278       .  A
C1634      O1643   1.280       .  A
C1634      C1678   1.496       .  S
O1635     Ni1654   1.936       .  S
O1635      C1641   1.272       .  A
O1636     Ni1654   1.895       .  S
O1636      C1638   1.267       .  A
Ni1637     O2312   1.931   1_545  S
Ni1637     O1642   1.902       .  S
C1638      O1648   1.276       .  A
C1638      C1741   1.487       .  S
O1639     Ni2327   1.906       .  S
O1639      C1645   1.263       .  A
O1640     Ni2309   1.934       .  S
O1640      C1645   1.269       .  A
C1641      C1661   1.486       .  S
O1642      C1644   1.271       .  A
O1643     Ni1654   1.933       .  S
C1644      O1650   1.284       .  A
C1644      C1748   1.512       .  S
C1645      C1668   1.482       .  S
H1646      O1647   0.966       .  S
O1647     Ni1655   1.898       .  S
O1647     Ni1649   1.894       .  S
O1647     Ni1654   1.896       .  S
O1648     Ni1649   1.947       .  S
Ni1649     O1653   1.908       .  S
Ni1649     O1651   1.922       .  S
O1650     Ni1655   1.967       .  S
C1652      O1653   1.267       .  A
C1652      C1811   1.467       .  S
Ni1655     O2311   1.907   1_545  S
C1657      C2330   1.411   1_545  A
C1657      C1662   1.408   1_554  A
C1657     Br1664   1.926       .  S
C1658      C2329   1.411       .  A
C1658      C1659   1.406   1_554  A
C1659      C1660   1.407       .  A
C1659     Br1666   1.932       .  S
C1660      C2333   1.415       .  A
C1660     Br1665   1.921       .  S
C1661      C2332   1.415   1_545  A
C1661      C1662   1.413       .  A
C1662     Br1663   1.933   1_556  S
C1667      C1668   1.411       .  A
C1667      C1672   1.411       .  A
C1667     Br2346   1.926       .  S
C1668      C1669   1.407       .  A
C1669      C1670   1.408       .  A
C1669     Br1676   1.931       .  S
C1670      C1671   1.418       .  A
C1670     Br1675   1.933       .  S
C1671      C1672   1.419       .  A
C1672     Br1673   1.932       .  S
Br1674     C2339   1.924       .  S
C1677      C1678   1.418       .  A
C1677      C1682   1.408       .  A
C1677     Br1684   1.935       .  S
C1678      C1679   1.417       .  A
C1679      C1680   1.414       .  A
C1679     Br1686   1.932       .  S
C1680      C1681   1.413       .  A
C1680     Br1685   1.931       .  S
C1681      C1682   1.414       .  A
C1682     Br1683   1.929       .  S
C1687      C1688   1.405       .  A
C1687      C1692   1.417   1_554  A
C1687     Br1694   1.932       .  S
C1689      C1690   1.414       .  A
C1689     Br1696   1.933       .  S
C1690      C1691   1.423   1_554  A
C1690     Br1695   1.935       .  S
C1692     Br1693   1.928       .  S
C1697      C1698   1.421       .  A
C1697      C1702   1.398       .  A
C1698      C1699   1.413       .  A
C1699      C1700   1.416       .  A
C1699     Br1706   1.929       .  S
C1700      C1701   1.411       .  A
C1700     Br1705   1.924       .  S
C1701      C1702   1.406       .  A
C1702     Br1703   1.936       .  S
C1707      C1708   1.410       .  A
C1707      C1712   1.411       .  A
C1707     Br1714   1.930       .  S
C1708      C1709   1.410       .  A
C1709      C1710   1.406       .  A
C1709     Br1716   1.928       .  S
C1710      C1711   1.421       .  A
C1710     Br1715   1.940       .  S
C1711      C1712   1.412       .  A
C1712     Br1713   1.929       .  S
C1717      C1718   1.415       .  A
C1717      C1722   1.410       .  A
C1717     Br1724   1.931       .  S
C1718      C1719   1.412       .  A
C1719      C1720   1.405       .  A
C1719     Br1726   1.930       .  S
C1720      C1721   1.415       .  A
C1720     Br1725   1.934       .  S
C1721      C1722   1.409       .  A
C1722     Br1723   1.932       .  S
C1727      C1728   1.411       .  A
C1727      C1732   1.413       .  A
C1727     Br1734   1.927       .  S
C1728      C1729   1.412       .  A
C1729      C1730   1.395       .  A
C1730      C2403   1.407       .  A
C1730     Br2407   1.931       .  S
C1731      C2402   1.407       .  A
C1731      C2404   1.410       .  A
C1732      C2403   1.410       .  A
C1732     Br1733   1.925       .  S
Br1735     C2402   1.931   1_545  S
C1737      C1738   1.415       .  A
C1737      C1742   1.421       .  A
C1737     Br1744   1.926       .  S
C1738      C1739   1.412       .  A
C1739      C1740   1.399       .  A
C1739     Br1746   1.929       .  S
C1740      C1741   1.411       .  A
C1740     Br1745   1.937       .  S
C1741      C1742   1.413       .  A
C1742     Br1743   1.926       .  S
C1747      C1752   1.411       .  A
C1749      C1750   1.413       .  A
C1750      C1751   1.410       .  A
C1750     Br1755   1.934       .  S
C1751      C1752   1.414       .  A
C1752     Br1753   1.930       .  S
C1757      C1758   1.409       .  A
C1757      C1762   1.412       .  A
C1757     Br1764   1.930       .  S
C1758      C1759   1.413       .  A
C1759      C1760   1.411       .  A
C1759     Br2438   1.929       .  S
C1762     Br1763   1.936       .  S
Br1766     C2431   1.928       .  S
C1767      C1768   1.416       .  A
C1767      C1772   1.410       .  A
C1767     Br1774   1.934       .  S
C1768      C1769   1.421       .  A
C1769      C1770   1.409       .  A
C1769     Br1776   1.932       .  S
C1770      C1771   1.414       .  A
C1770     Br1775   1.936       .  S
C1771      C1772   1.414       .  A
C1772     Br1773   1.934       .  S
C1777      C1778   1.410       .  A
C1777      C1782   1.416       .  A
C1777     Br1784   1.928       .  S
C1778      C1779   1.403       .  A
C1779      C1780   1.398       .  A
C1779     Br1786   1.939       .  S
C1780      C1781   1.422       .  A
C1780     Br1785   1.935       .  S
C1781      C1782   1.413       .  A
C1782     Br1783   1.926       .  S
C1787      C1788   1.410       .  A
C1787      C1792   1.402       .  A
C1787     Br1794   1.931       .  S
C1788      C1789   1.409       .  A
C1789      C1790   1.408       .  A
C1789     Br1796   1.934       .  S
C1790      C2463   1.420   1_545  A
C1790     Br1795   1.934       .  S
C1791      C2462   1.416       .  A
C1791      C2464   1.420       .  A
C1792      C2463   1.419   1_545  A
C1792     Br2465   1.935   1_545  S
Br1793     C2464   1.938       .  S
C1797      C1798   1.411       .  A
C1797      C1802   1.410   1_554  A
C1797     Br1804   1.927       .  S
C1798      C1799   1.408   1_554  A
C1799      C1800   1.409       .  A
C1799     Br1806   1.931       .  S
C1800      C1801   1.414       .  A
C1800     Br1805   1.924       .  S
C1801      C1802   1.412       .  A
C1802     Br1803   1.932   1_556  S
C1807      C1808   1.408       .  A
C1807      C1812   1.407       .  A
C1807     Br1814   1.928       .  S
C1808      C1809   1.406       .  A
C1809      C1810   1.402       .  A
C1809     Br1816   1.931       .  S
C1810      C1811   1.408       .  A
C1810     Br1815   1.929       .  S
C1811      C1812   1.409       .  A
C1812     Br1813   1.928       .  S
C1817      C1818   1.409       .  A
C1817      C1822   1.405       .  A
C1817     Br1824   1.932       .  S
C1819      C1820   1.408       .  A
C1819     Br1826   1.927       .  S
C1820      C1821   1.408       .  A
C1820     Br1825   1.929       .  S
C1822     Br1823   1.926       .  S
C1827      C1828   1.408       .  A
C1827      C1832   1.403       .  A
C1827     Br1834   1.930       .  S
C1828      C1829   1.412       .  A
C1829      C1830   1.408       .  A
C1829     Br1836   1.928       .  S
C1830      C1831   1.405       .  A
C1830     Br1835   1.928       .  S
C1831      C1832   1.407       .  A
C1832     Br1833   1.931       .  S
C1837      C1838   1.406       .  A
C1837      C1842   1.405       .  A
C1837     Br1844   1.928       .  S
C1838      C1839   1.404       .  A
C1839      C1840   1.406       .  A
C1839     Br1846   1.926       .  S
C1840      C1841   1.410       .  A
C1840     Br1845   1.928       .  S
C1841      C1842   1.408       .  A
C1842     Br1843   1.927       .  S
C1847      C1848   1.414       .  A
C1847      C1852   1.408       .  A
C1847     Br1854   1.933       .  S
C1848      C1849   1.413       .  A
C1849      C1850   1.409       .  A
C1849     Br1856   1.933       .  S
C1850      C1851   1.415       .  A
C1850     Br1855   1.934       .  S
C1851      C1852   1.418       .  A
C1852     Br1853   1.929       .  S
C1857      C1858   1.414       .  A
C1857      C1862   1.409       .  A
C1857     Br1864   1.929       .  S
C1858      C1859   1.417       .  A
C1859      C1860   1.406       .  A
C1859     Br1866   1.935       .  S
C1860      C1861   1.408       .  A
C1860     Br1865   1.931       .  S
C1861      C1862   1.414       .  A
C1867      C1868   1.412       .  A
C1867      C2544   1.410       .  A
C1867     Br1874   1.926       .  S
C1868      C1869   1.410       .  A
C1869      C2542   1.414       .  A
C1869     Br1876   1.928       .  S
C1870      C2541   1.412       .  A
C1870      C1871   1.414   1_565  A
C1870     Br1875   1.925       .  S
C1871      C1872   1.409       .  A
C1872      C2539   1.410       .  A
C1872     Br1873   1.933       .  S
C1877      C1878   1.407       .  A
C1877      C1882   1.413       .  A
C1877     Br1884   1.929       .  S
C1878      C1879   1.409       .  A
C1879      C1880   1.410       .  A
C1879     Br2558   1.931       .  S
C1880      C1881   1.416       .  A
C1880     Br1885   1.922       .  S
C1881      C1882   1.420       .  A
C1882     Br1883   1.931       .  S
Br1886     C2551   1.931       .  S
C1887      C1888   1.419       .  A
C1887      C1892   1.413       .  A
C1887     Br1894   1.926       .  S
C1888      C1889   1.415       .  A
C1889      C1890   1.412       .  A
C1889     Br1896   1.931       .  S
C1890      C1891   1.413       .  A
C1890     Br1895   1.932       .  S
C1891      C1892   1.414       .  A
C1892     Br1893   1.931       .  S
C1897      C1898   1.408       .  A
C1897      C1902   1.407       .  A
C1897     Br1904   1.929       .  S
C1898      C1899   1.410       .  A
C1899      C1900   1.411       .  A
C1899     Br1906   1.928       .  S
C1900      C1901   1.409       .  A
C1900     Br1905   1.927       .  S
C1901      C1902   1.409       .  A
C1902     Br1903   1.929       .  S
C1907      C1908   1.410       .  A
C1907      C1912   1.409       .  A
C1907     Br1914   1.929       .  S
C1908      C1909   1.408       .  A
C1909      C1910   1.410       .  A
C1909     Br1916   1.928       .  S
C1910      C1911   1.412       .  A
C1910     Br1915   1.930       .  S
C1911      C1912   1.408       .  A
C1912     Br1913   1.928       .  S
C1917      C1918   1.418       .  A
C1917      C1922   1.404       .  A
C1917     Br1924   1.934       .  S
C1918      C1919   1.413       .  A
C1919      C1920   1.419       .  A
C1919     Br1926   1.927       .  S
C1920      C1921   1.414       .  A
C1920     Br1925   1.927       .  S
C1921      C1922   1.409       .  A
C1922     Br1923   1.937       .  S
C1927      C1932   1.411       .  A
C1927     Br1934   1.935       .  S
C1929      C1930   1.408       .  A
C1930      C1931   1.415       .  A
C1930     Br2607   1.929       .  S
C1931      C1932   1.413       .  A
C1932     Br1933   1.936       .  S
Br1935     C2602   1.928       .  S
C1937      C1938   1.414       .  A
C1937      C1942   1.408       .  A
C1937     Br1944   1.926       .  S
C1938      C1939   1.414       .  A
C1939      C1940   1.416       .  A
C1939     Br1946   1.931       .  S
C1940      C1941   1.416       .  A
C1940     Br1945   1.931       .  S
C1941      C1942   1.418       .  A
C1942     Br1943   1.940       .  S
C1947      C1948   1.414       .  A
C1947      C1952   1.397       .  A
C1947     Br1954   1.927       .  S
C1948      C1949   1.415       .  A
C1949      C1950   1.420       .  A
C1949     Br1956   1.925       .  S
C1950      C2623   1.412       .  A
C1950     Br1955   1.926       .  S
C1951      C2622   1.412   1_545  A
C1951      C2624   1.405       .  A
C1952      C2623   1.405       .  A
C1952     Br2625   1.929       .  S
Br1953     C2624   1.932   1_455  S
C1957      C1958   1.412       .  A
C1957      C1962   1.406       .  A
C1957     Br1964   1.930       .  S
C1958      C1959   1.406       .  A
C1959      C1960   1.409       .  A
C1959     Br1966   1.926       .  S
C1960      C1961   1.410       .  A
C1960     Br1965   1.928       .  S
C1961      C1962   1.406       .  A
C1962     Br1963   1.930       .  S
C1967      C1968   1.405       .  A
C1967      C1972   1.411       .  A
C1967     Br1974   1.931       .  S
C1968      C1969   1.403       .  A
C1969      C1970   1.413       .  A
C1969     Br1976   1.932       .  S
C1970      C1971   1.426       .  A
C1970     Br1975   1.929       .  S
C1971      C1972   1.422       .  A
C1972     Br1973   1.934       .  S
C1977      C2650   1.421   1_545  A
C1977      C1982   1.415       .  A
C1977     Br1984   1.936       .  S
C1978      C2649   1.420       .  A
C1978      C2651   1.425       .  A
C1979      C2650   1.417   1_545  A
C1979      C1980   1.409       .  A
C1979     Br2658   1.937   1_545  S
C1980      C1981   1.416       .  A
C1981      C1982   1.418       .  A
C1982     Br1983   1.936       .  S
Br1986     C2651   1.938       .  S
C1987      C1988   1.416       .  A
C1987      C1992   1.400       .  A
C1987     Br1994   1.934       .  S
C1988      C1989   1.413       .  A
C1989      C1990   1.417       .  A
C1989     Br1996   1.927       .  S
C1990      C1991   1.411       .  A
C1990     Br1995   1.927       .  S
C1991      C1992   1.407       .  A
C1992     Br1993   1.935       .  S
C1997      C1998   1.419       .  A
C1997      C2002   1.398   1_655  A
C1997     Br2004   1.934       .  S
C1998      C1999   1.415       .  A
C1999      C2000   1.416       .  A
C1999     Br2006   1.928       .  S
C2000     Br2005   1.926   1_655  S
C2007      C2008   1.419       .  A
C2007      C2012   1.407       .  A
C2007     Br2014   1.938       .  S
C2008      C2009   1.416       .  A
C2009      C2010   1.411       .  A
C2009     Br2016   1.932       .  S
C2010      C2011   1.413       .  A
C2010     Br2015   1.933       .  S
C2011      C2012   1.413       .  A
C2012     Br2013   1.928       .  S
O2017     Ni2023   1.905       .  S
O2017      C2038   1.267       .  A
O2018     Ni2041   1.905       .  S
O2018      C2027   1.268       .  A
O2019     Ni2023   1.919       .  S
O2019     Ni2041   1.917       .  S
O2019     Ni2035   1.942       .  S
O2019      H2042   0.967       .  S
C2020      O2037   1.274       .  A
C2020      O2029   1.278       .  A
C2020      C2680   1.488       .  S
O2021     Ni2040   1.939       .  S
O2021      C2027   1.274       .  A
O2022     Ni2040   1.907       .  S
O2022      C2024   1.269       .  A
Ni2023     O2026   1.924       .  S
Ni2023     O2028   1.915       .  S
C2024      O2034   1.275       .  A
C2024      C2660   1.492       .  S
O2025     Ni2041   1.927       .  S
O2025      C2031   1.269       .  A
O2026      C2031   1.268       .  A
C2027      C2643   1.476       .  S
O2028      C2030   1.273       .  A
O2029     Ni2040   1.938       .  S
C2030      O2036   1.282       .  A
C2030      C2650   1.508       .  S
C2031      C2670   1.492       .  S
H2032      O2033   0.966       .  S
O2033     Ni2041   1.902       .  S
O2033     Ni2035   1.898       .  S
O2033     Ni2040   1.901       .  S
O2034     Ni2035   1.942       .  S
Ni2035     O2039   1.915       .  S
Ni2035     O2037   1.910       .  S
O2036     Ni2041   1.952       .  S
C2038      O2039   1.267       .  A
C2038      C2630   1.474       .  S
O2043     Ni2049   1.912       .  S
O2043      C2064   1.266       .  A
O2044     Ni2067   1.917       .  S
O2044      C2053   1.268       .  A
O2045     Ni2049   1.924       .  S
O2045     Ni2067   1.926       .  S
O2045     Ni2061   1.932       .  S
O2045      H2068   0.966       .  S
C2046      O2063   1.273       .  A
C2046      O2055   1.280       .  A
C2046      C2613   1.492       .  S
O2047     Ni2066   1.939       .  S
O2047      C2053   1.276       .  A
O2048     Ni2066   1.906       .  S
O2048      C2050   1.269       .  A
Ni2049     O2052   1.918       .  S
Ni2049     O2054   1.918       .  S
C2050      O2060   1.278       .  A
C2050      C2590   1.498       .  S
O2051     Ni2067   1.929       .  S
O2051      C2057   1.273       .  A
O2052      C2057   1.268       .  A
C2053      C2640   1.500       .  S
O2054      C2056   1.272       .  A
O2055     Ni2066   1.939       .  S
C2056      O2062   1.275       .  A
C2056      C2600   1.505   1_655  S
C2057      C2620   1.496       .  S
H2058      O2059   0.966       .  S
O2059     Ni2067   1.906       .  S
O2059     Ni2061   1.897       .  S
O2059     Ni2066   1.898       .  S
O2060     Ni2061   1.950       .  S
Ni2061     O2065   1.918       .  S
Ni2061     O2063   1.906       .  S
O2062     Ni2067   1.938       .  S
C2064      O2065   1.267       .  A
C2064      C2580   1.475       .  S
O2069     Ni2075   1.915       .  S
O2069      C2090   1.268       .  A
O2070     Ni2093   1.905       .  S
O2070      C2079   1.267       .  A
O2071     Ni2075   1.921       .  S
O2071     Ni2093   1.916       .  S
O2071     Ni2087   1.933       .  S
O2071      H2094   0.966       .  S
C2072      O2089   1.273       .  A
C2072      O2081   1.279       .  A
C2072      C2560   1.502       .  S
O2073     Ni2092   1.952       .  S
O2073      C2079   1.276       .  A
O2074     Ni2092   1.905       .  S
O2074      C2076   1.269       .  A
Ni2075     O2078   1.924       .  S
Ni2075     O2080   1.909       .  S
C2076      O2086   1.274       .  A
C2076      C2683   1.499       .  S
O2077     Ni2093   1.912   1_545  S
C2079      C2540   1.489       .  S
O2080      C2082   1.272       .  A
O2081     Ni2092   1.942       .  S
C2082      O2088   1.280       .  A
C2082      C2673   1.479       .  S
C2083      C2550   1.488       .  S
H2084      O2085   0.966       .  S
O2085     Ni2093   1.907       .  S
O2085     Ni2087   1.906       .  S
O2085     Ni2092   1.917       .  S
O2086     Ni2087   1.937       .  S
Ni2087     O2091   1.916       .  S
Ni2087     O2089   1.920       .  S
O2088     Ni2093   1.952       .  S
C2090      O2091   1.268       .  A
C2090      C2573   1.475       .  S
O2095     Ni2101   1.918       .  S
O2095      C2116   1.267       .  A
O2096     Ni2119   1.915       .  S
O2096      C2105   1.272       .  A
O2097     Ni2101   1.900       .  S
O2097     Ni2119   1.897       .  S
O2097     Ni2113   1.923       .  S
O2097      H2120   0.967       .  S
C2098      O2115   1.286       .  A
C2098      O2107   1.280       .  A
C2098      C2593   1.495       .  S
O2099     Ni2118   1.940       .  S
O2099      C2105   1.273       .  A
O2100     Ni2118   1.901       .  S
O2100      C2102   1.267       .  A
Ni2101     O2106   1.888       .  S
C2102      O2112   1.271       .  A
C2102      C2520   1.480       .  S
O2103      C2109   1.274   1_545  A
O2104      C2109   1.277   1_545  A
C2105      C2543   1.490       .  S
O2106      C2108   1.266       .  A
O2107     Ni2118   1.924       .  S
C2108      O2114   1.277       .  A
C2108      C2530   1.492       .  S
C2109      C2603   1.489       .  S
H2110      O2111   0.966       .  S
O2111     Ni2119   1.914       .  S
O2111     Ni2113   1.904       .  S
O2111     Ni2118   1.889       .  S
O2112     Ni2113   1.926       .  S
Ni2113     O2117   1.925       .  S
Ni2113     O2115   1.953       .  S
O2114     Ni2119   1.947       .  S
C2116      O2117   1.271       .  A
C2116      C2513   1.473       .  S
O2121     Ni2127   1.933       .  S
O2121      C2142   1.274       .  A
O2122     Ni2145   1.907       .  S
O2122      C2131   1.269       .  A
O2123     Ni2127   1.902       .  S
O2123     Ni2145   1.897       .  S
O2123     Ni2139   1.920       .  S
O2123      H2146   0.967       .  S
C2124      O2141   1.283       .  A
C2124      O2133   1.278       .  A
C2124      C2663   1.489       .  S
O2125     Ni2144   1.931       .  S
O2125      C2131   1.273       .  A
O2126     Ni2144   1.912       .  S
O2126      C2128   1.269       .  A
Ni2127     O2130   1.939       .  S
Ni2127     O2132   1.908       .  S
C2128      O2138   1.274       .  A
C2128      C2563   1.491       .  S
O2129     Ni2145   1.914       .  S
C2131      C2490   1.476       .  S
O2132      C2134   1.270       .  A
O2133     Ni2144   1.918       .  S
C2134      O2140   1.276       .  A
C2134      C2553   1.509       .  S
C2135      C2653   1.492       .  S
H2136      O2137   0.966       .  S
O2137     Ni2145   1.910       .  S
O2137     Ni2139   1.896       .  S
O2137     Ni2144   1.886       .  S
O2138     Ni2139   1.936       .  S
Ni2139     O2143   1.908       .  S
Ni2139     O2141   1.947       .  S
O2140     Ni2145   1.950       .  S
C2142      O2143   1.268       .  A
C2142      C2500   1.474       .  S
O2147     Ni2153   1.926       .  S
O2147      C2168   1.270       .  A
O2148     Ni2171   1.902       .  S
O2148      C2157   1.266       .  A
O2149     Ni2153   1.917       .  S
O2149     Ni2171   1.915       .  S
O2149     Ni2165   1.918       .  S
O2149      H2172   0.966       .  S
C2150      O2167   1.271       .  A
C2150      O2159   1.279       .  A
C2150      C2523   1.491       .  S
O2151     Ni2170   1.942       .  S
O2151      C2157   1.274       .  A
O2152     Ni2170   1.905       .  S
O2152      C2154   1.267       .  A
Ni2153     O2156   1.930   1_655  S
Ni2153     O2158   1.908       .  S
C2154      O2164   1.272       .  A
C2154      C2610   1.495       .  S
O2155     Ni2171   1.892   1_455  S
C2157      C2493   1.481       .  S
O2158      C2160   1.270       .  A
O2159     Ni2170   1.930       .  S
C2160      O2166   1.280       .  A
C2160      C2623   1.480       .  S
C2161      C2533   1.477       .  S
H2162      O2163   0.966       .  S
O2163     Ni2171   1.893       .  S
O2163     Ni2165   1.898       .  S
O2163     Ni2170   1.915       .  S
O2164     Ni2165   1.933       .  S
Ni2165     O2169   1.905       .  S
Ni2165     O2167   1.907       .  S
O2166     Ni2171   1.954       .  S
C2168      O2169   1.264       .  A
C2168      C2480   1.472       .  S
O2173     Ni2179   1.932       .  S
O2173      C2194   1.271       .  A
O2174     Ni2197   1.915       .  S
O2174      C2183   1.272       .  A
O2175     Ni2179   1.910       .  S
O2175     Ni2197   1.904       .  S
O2175     Ni2191   1.919       .  S
O2175      H2198   0.966       .  S
C2176      O2193   1.279       .  A
C2176      O2185   1.281       .  A
C2176      C2450   1.484       .  S
O2177     Ni2196   1.946       .  S
O2177      C2183   1.277       .  A
O2178     Ni2196   1.914       .  S
O2178      C2180   1.270       .  A
Ni2179     O2182   1.937       .  S
Ni2179     O2184   1.900       .  S
C2180      O2190   1.273       .  A
C2180      C2440   1.499       .  S
O2181     Ni2197   1.906       .  S
O2181      C2187   1.270       .  A
O2182      C2187   1.276       .  A
C2183      C2470   1.494       .  S
O2184      C2186   1.268       .  A
O2185     Ni2196   1.928       .  S
C2186      O2192   1.276       .  A
C2186      C2433   1.503       .  S
C2187      C2460   1.483       .  S
H2188      O2189   0.966       .  S
O2189     Ni2197   1.907       .  S
O2189     Ni2191   1.900       .  S
O2189     Ni2196   1.894       .  S
O2190     Ni2191   1.933       .  S
Ni2191     O2195   1.907       .  S
Ni2191     O2193   1.932       .  S
O2192     Ni2197   1.944       .  S
C2194      O2195   1.266       .  A
C2194      C2503   1.472       .  S
O2199     Ni2205   1.934       .  S
O2199      C2220   1.272       .  A
O2200     Ni2223   1.905       .  S
O2200      C2209   1.266       .  A
O2201     Ni2205   1.906       .  S
O2201     Ni2223   1.912       .  S
O2201     Ni2217   1.920       .  S
O2201      H2224   0.966       .  S
C2202      O2219   1.280       .  A
C2202      O2211   1.278       .  A
C2202      C2410   1.489       .  S
O2203     Ni2222   1.940       .  S
O2203      C2209   1.273       .  A
O2204     Ni2222   1.911       .  S
O2204      C2206   1.269       .  A
Ni2205     O2208   1.935       .  S
Ni2205     O2210   1.900       .  S
C2206      O2216   1.269       .  A
C2206      C2393   1.475       .  S
O2207     Ni2223   1.913       .  S
O2207      C2213   1.270       .  A
O2208      C2213   1.276       .  A
C2209      C2473   1.480       .  S
O2210      C2212   1.269       .  A
O2211     Ni2222   1.926       .  S
C2212      O2218   1.275       .  A
C2212      C2403   1.470       .  S
C2213      C2423   1.494       .  S
H2214      O2215   0.965       .  S
O2215     Ni2223   1.906       .  S
O2215     Ni2217   1.903       .  S
O2215     Ni2222   1.903       .  S
O2216     Ni2217   1.918       .  S
Ni2217     O2221   1.909       .  S
Ni2217     O2219   1.931       .  S
O2218     Ni2223   1.941       .  S
C2220      O2221   1.267       .  A
C2220      C2510   1.476       .  S
O2225     Ni2231   1.911       .  S
O2225      C2246   1.267       .  A
O2226     Ni2249   1.913       .  S
O2226      C2235   1.270       .  A
O2227     Ni2231   1.918       .  S
O2227     Ni2249   1.919       .  S
O2227     Ni2243   1.933       .  S
O2227      H2250   0.966       .  S
C2228      O2245   1.272       .  A
C2228      O2237   1.280       .  A
C2228      C2383   1.488       .  S
O2229     Ni2248   1.934       .  S
O2229      C2235   1.273       .  A
O2230     Ni2248   1.895       .  S
O2230      C2232   1.268       .  A
Ni2231     O2234   1.922       .  S
Ni2231     O2236   1.911       .  S
C2232      O2242   1.279       .  A
C2232      C2453   1.488       .  S
O2233     Ni2249   1.925       .  S
C2235      C2360   1.479       .  S
O2236      C2238   1.271       .  A
O2237     Ni2248   1.936       .  S
C2238      O2244   1.276       .  A
C2238      C2463   1.496       .  S
C2239      C2370   1.493       .  S
H2240      O2241   0.965       .  S
O2241     Ni2249   1.908       .  S
O2241     Ni2243   1.895       .  S
O2241     Ni2248   1.894       .  S
O2242     Ni2243   1.945       .  S
Ni2243     O2247   1.918       .  S
Ni2243     O2245   1.906       .  S
O2244     Ni2249   1.937       .  S
C2246      O2247   1.268       .  A
C2246      C2570   1.474       .  S
O2251     Ni2257   1.914       .  S
O2251      C2272   1.263       .  A
O2252     Ni2275   1.918       .  S
O2252      C2261   1.271       .  A
O2253     Ni2257   1.902       .  S
O2253     Ni2275   1.906       .  S
O2253     Ni2269   1.909       .  S
O2253      H2276   0.967       .  S
C2254      O2271   1.277       .  A
C2254      O2263   1.281       .  A
C2254      C2390   1.477       .  S
O2255     Ni2274   1.945       .  S
O2255      C2261   1.278       .  A
O2256     Ni2274   1.914       .  S
O2256      C2258   1.271       .  A
Ni2257     O2260   1.909       .  S
Ni2257     O2262   1.903       .  S
C2258      O2268   1.272       .  A
C2258      C2353   1.498       .  S
O2259     Ni2275   1.929       .  S
C2261      C2363   1.505       .  S
O2262      C2264   1.268       .  A
O2263     Ni2274   1.934       .  S
C2264      O2270   1.269       .  A
C2264      C2343   1.488       .  S
C2265      C2400   1.478       .  S
H2266      O2267   0.966       .  S
O2267     Ni2275   1.905       .  S
O2267     Ni2269   1.897       .  S
O2267     Ni2274   1.889       .  S
O2268     Ni2269   1.930       .  S
Ni2269     O2273   1.923       .  S
Ni2269     O2271   1.912       .  S
O2270     Ni2275   1.923       .  S
C2272      O2273   1.266       .  A
C2272      C2583   1.474       .  S
O2277     Ni2283   1.920       .  S
O2277      C2298   1.270       .  A
O2278     Ni2301   1.902       .  S
O2278      C2287   1.266       .  A
O2279     Ni2283   1.916       .  S
O2279     Ni2301   1.910       .  S
O2279     Ni2295   1.927       .  S
O2279      H2302   0.966       .  S
C2280      O2297   1.276       .  A
C2280      O2289   1.277       .  A
C2280      C2443   1.508       .  S
O2281     Ni2300   1.938       .  S
O2281      C2287   1.273       .  A
O2282     Ni2300   1.906       .  S
O2282      C2284   1.269       .  A
Ni2283     O2286   1.929       .  S
Ni2283     O2288   1.909       .  S
C2284      O2294   1.273       .  A
C2284      C2380   1.485       .  S
O2285     Ni2301   1.916       .  S
C2287      C2330   1.479       .  S
O2288      C2290   1.271       .  A
O2289     Ni2300   1.929       .  S
C2290      O2296   1.277       .  A
C2290      C2373   1.477       .  S
C2291      C2430   1.483       .  S
H2292      O2293   0.976       .  S
O2293     Ni2301   1.909       .  S
O2293     Ni2295   1.899       .  S
O2293     Ni2300   1.912       .  S
O2294     Ni2295   1.928       .  S
Ni2295     O2299   1.908       .  S
Ni2295     O2297   1.930       .  S
O2296     Ni2301   1.946       .  S
C2298      O2299   1.266       .  A
C2298      C2633   1.468       .  S
O2303     Ni2309   1.914       .  S
O2303      C2324   1.270       .  A
O2304     Ni2327   1.904       .  S
O2304      C2313   1.268       .  A
O2305     Ni2309   1.920       .  S
O2305     Ni2327   1.908       .  S
O2305     Ni2321   1.936       .  S
O2305      H2328   0.966       .  S
C2306      O2323   1.275       .  A
C2306      O2315   1.281       .  A
C2306      C2350   1.497       .  S
O2307     Ni2326   1.942       .  S
O2307      C2313   1.274       .  A
O2308     Ni2326   1.891       .  S
O2308      C2310   1.267       .  A
Ni2309     O2314   1.906       .  S
C2310      O2320   1.277       .  A
C2310      C2413   1.488       .  S
O2311      C2317   1.263       .  A
O2312      C2317   1.268       .  A
C2313      C2333   1.486       .  S
O2314      C2316   1.272       .  A
O2315     Ni2326   1.936       .  S
C2316      O2322   1.282       .  A
C2316      C2420   1.513       .  S
C2317      C2340   1.480       .  S
H2318      O2319   0.966       .  S
O2319     Ni2327   1.899       .  S
O2319     Ni2321   1.898       .  S
O2319     Ni2326   1.897       .  S
O2320     Ni2321   1.949       .  S
Ni2321     O2325   1.913       .  S
Ni2321     O2323   1.916       .  S
O2322     Ni2327   1.963       .  S
C2324      O2325   1.269       .  A
C2324      C2483   1.473       .  S
C2329      C2334   1.408       .  A
C2329     Br2336   1.925       .  S
C2330      C2331   1.407   1_554  A
C2331      C2332   1.408       .  A
C2331     Br2338   1.932       .  S
C2332     Br2337   1.922       .  S
C2333      C2334   1.411   1_556  A
C2334     Br2335   1.931       .  S
C2339      C2340   1.409       .  A
C2339      C2344   1.407       .  A
C2340      C2341   1.408       .  A
C2341      C2342   1.408       .  A
C2341     Br2348   1.929       .  S
C2342      C2343   1.416       .  A
C2342     Br2347   1.933       .  S
C2343      C2344   1.417       .  A
C2344     Br2345   1.935       .  S
C2349      C2350   1.420       .  A
C2349      C2354   1.408       .  A
C2349     Br2356   1.935       .  S
C2350      C2351   1.417       .  A
C2351      C2352   1.413       .  A
C2351     Br2358   1.932       .  S
C2352      C2353   1.413       .  A
C2352     Br2357   1.932       .  S
C2353      C2354   1.413       .  A
C2354     Br2355   1.932       .  S
C2359      C2360   1.404       .  A
C2359      C2364   1.412   1_554  A
C2359     Br2366   1.932       .  S
C2361      C2362   1.411       .  A
C2361     Br2368   1.932       .  S
C2362      C2363   1.422   1_554  A
C2362     Br2367   1.934       .  S
C2364     Br2365   1.926       .  S
C2369      C2370   1.419       .  A
C2369      C2374   1.400       .  A
C2370      C2371   1.415       .  A
C2371      C2372   1.417       .  A
C2371     Br2378   1.927       .  S
C2372      C2373   1.410       .  A
C2372     Br2377   1.926       .  S
C2373      C2374   1.404       .  A
C2374     Br2375   1.933       .  S
C2379      C2380   1.413       .  A
C2379      C2384   1.412       .  A
C2379     Br2386   1.932       .  S
C2380      C2381   1.411       .  A
C2381      C2382   1.405       .  A
C2381     Br2388   1.929       .  S
C2382      C2383   1.419       .  A
C2382     Br2387   1.940       .  S
C2383      C2384   1.413       .  A
C2384     Br2385   1.930       .  S
C2389      C2390   1.412       .  A
C2389      C2394   1.409       .  A
C2389     Br2396   1.928       .  S
C2390      C2391   1.408       .  A
C2391      C2392   1.403       .  A
C2391     Br2398   1.930       .  S
C2392      C2393   1.414       .  A
C2392     Br2397   1.931       .  S
C2393      C2394   1.408       .  A
C2394     Br2395   1.929       .  S
C2399      C2400   1.412       .  A
C2399      C2404   1.414       .  A
C2399     Br2406   1.927       .  S
C2400      C2401   1.414       .  A
C2401      C2402   1.397       .  A
C2404     Br2405   1.925       .  S
C2409      C2410   1.416       .  A
C2409      C2414   1.419       .  A
C2409     Br2416   1.927       .  S
C2410      C2411   1.415       .  A
C2411      C2412   1.401       .  A
C2411     Br2418   1.936       .  S
C2412      C2413   1.412       .  A
C2412     Br2417   1.939       .  S
C2413      C2414   1.412       .  A
C2414     Br2415   1.926       .  S
C2419      C2424   1.414       .  A
C2421      C2422   1.412       .  A
C2422      C2423   1.409       .  A
C2422     Br2427   1.933       .  S
C2423      C2424   1.415       .  A
C2424     Br2425   1.933       .  S
C2429      C2430   1.408       .  A
C2429      C2434   1.408       .  A
C2429     Br2436   1.934       .  S
C2430      C2431   1.412       .  A
C2431      C2432   1.410       .  A
C2434     Br2435   1.936       .  S
C2439      C2440   1.414       .  A
C2439      C2444   1.413       .  A
C2439     Br2446   1.934       .  S
C2440      C2441   1.418       .  A
C2441      C2442   1.413       .  A
C2441     Br2448   1.933       .  S
C2442      C2443   1.419       .  A
C2442     Br2447   1.932       .  S
C2443      C2444   1.418       .  A
C2444     Br2445   1.934       .  S
C2449      C2450   1.414       .  A
C2449      C2454   1.418       .  A
C2449     Br2456   1.926       .  S
C2450      C2451   1.407       .  A
C2451      C2452   1.401       .  A
C2451     Br2458   1.937       .  S
C2452      C2453   1.419       .  A
C2452     Br2457   1.935       .  S
C2453      C2454   1.412       .  A
C2454     Br2455   1.928       .  S
C2459      C2460   1.410       .  A
C2459      C2464   1.409       .  A
C2459     Br2466   1.930       .  S
C2460      C2461   1.408       .  A
C2461      C2462   1.411       .  A
C2461     Br2468   1.929       .  S
C2462     Br2467   1.931       .  S
C2469      C2470   1.417       .  A
C2469      C2474   1.411       .  A
C2469     Br2476   1.920       .  S
C2470      C2471   1.413   1_554  A
C2471      C2472   1.411       .  A
C2471     Br2478   1.930       .  S
C2472      C2473   1.410       .  A
C2472     Br2477   1.927       .  S
C2473      C2474   1.405   1_556  A
C2474     Br2475   1.932       .  S
C2479      C2480   1.407       .  A
C2479      C2484   1.407       .  A
C2479     Br2486   1.927       .  S
C2480      C2481   1.408       .  A
C2481      C2482   1.407       .  A
C2481     Br2488   1.929       .  S
C2482      C2483   1.410       .  A
C2482     Br2487   1.929       .  S
C2483      C2484   1.408       .  A
C2484     Br2485   1.927       .  S
C2489      C2490   1.407       .  A
C2489      C2494   1.406       .  A
C2489     Br2496   1.934       .  S
C2491      C2492   1.409       .  A
C2491     Br2498   1.927       .  S
C2492      C2493   1.409       .  A
C2492     Br2497   1.930       .  S
C2494     Br2495   1.922       .  S
C2499      C2500   1.406       .  A
C2499      C2504   1.406       .  A
C2499     Br2506   1.927       .  S
C2500      C2501   1.411       .  A
C2501      C2502   1.409       .  A
C2501     Br2508   1.929       .  S
C2502      C2503   1.408       .  A
C2502     Br2507   1.928       .  S
C2503      C2504   1.408       .  A
C2504     Br2505   1.929       .  S
C2509      C2510   1.411       .  A
C2509      C2514   1.410       .  A
C2509     Br2516   1.929       .  S
C2510      C2511   1.409       .  A
C2511      C2512   1.408       .  A
C2511     Br2518   1.929       .  S
C2512      C2513   1.410       .  A
C2512     Br2517   1.930       .  S
C2513      C2514   1.407       .  A
C2514     Br2515   1.927       .  S
C2519      C2520   1.411       .  A
C2519      C2524   1.408       .  A
C2519     Br2526   1.935       .  S
C2520      C2521   1.411       .  A
C2521      C2522   1.406       .  A
C2521     Br2528   1.934       .  S
C2522      C2523   1.415       .  A
C2522     Br2527   1.934       .  S
C2523      C2524   1.420       .  A
C2524     Br2525   1.930       .  S
C2529      C2530   1.415       .  A
C2529      C2534   1.410       .  A
C2529     Br2536   1.928       .  S
C2530      C2531   1.420       .  A
C2531      C2532   1.405       .  A
C2531     Br2538   1.934       .  S
C2532      C2533   1.403       .  A
C2532     Br2537   1.931       .  S
C2533      C2534   1.413       .  A
C2539      C2540   1.414   1_545  A
C2539     Br2546   1.923       .  S
C2540      C2541   1.410       .  A
C2541     Br2548   1.929       .  S
C2542      C2543   1.414       .  A
C2542     Br2547   1.926       .  S
C2543      C2544   1.411       .  A
C2544     Br2545   1.931       .  S
C2549      C2550   1.407       .  A
C2549      C2554   1.410       .  A
C2549     Br2556   1.931       .  S
C2550      C2551   1.411       .  A
C2551      C2552   1.416       .  A
C2552      C2553   1.423       .  A
C2552     Br2557   1.929       .  S
C2553      C2554   1.421       .  A
C2554     Br2555   1.935       .  S
C2559      C2560   1.419       .  A
C2559      C2564   1.412       .  A
C2559     Br2566   1.927       .  S
C2560      C2561   1.415       .  A
C2561      C2562   1.413       .  A
C2561     Br2568   1.931       .  S
C2562      C2563   1.412       .  A
C2562     Br2567   1.932       .  S
C2563      C2564   1.413       .  A
C2564     Br2565   1.933       .  S
C2569      C2570   1.408       .  A
C2569      C2574   1.409       .  A
C2569     Br2576   1.928       .  S
C2570      C2571   1.410       .  A
C2571      C2572   1.409       .  A
C2571     Br2578   1.929       .  S
C2572      C2573   1.408       .  A
C2572     Br2577   1.928       .  S
C2573      C2574   1.410       .  A
C2574     Br2575   1.929       .  S
C2579      C2580   1.409       .  A
C2579      C2584   1.409       .  A
C2579     Br2586   1.928       .  S
C2580      C2581   1.408       .  A
C2581      C2582   1.409       .  A
C2581     Br2588   1.927       .  S
C2582      C2583   1.410       .  A
C2582     Br2587   1.931       .  S
C2583      C2584   1.408       .  A
C2584     Br2585   1.928       .  S
C2589      C2590   1.418       .  A
C2589      C2594   1.407       .  A
C2589     Br2596   1.936       .  S
C2590      C2591   1.414       .  A
C2591      C2592   1.421       .  A
C2591     Br2598   1.926       .  S
C2592      C2593   1.414       .  A
C2592     Br2597   1.927       .  S
C2593      C2594   1.413       .  A
C2594     Br2595   1.937       .  S
C2599      C2604   1.413       .  A
C2599     Br2606   1.933       .  S
C2601      C2602   1.405       .  A
C2602      C2603   1.412       .  A
C2603      C2604   1.414       .  A
C2604     Br2605   1.933       .  S
C2609      C2610   1.415       .  A
C2609      C2614   1.407       .  A
C2609     Br2616   1.929       .  S
C2610      C2611   1.416       .  A
C2611      C2612   1.413       .  A
C2611     Br2618   1.934       .  S
C2612      C2613   1.415       .  A
C2612     Br2617   1.933       .  S
C2613      C2614   1.418       .  A
C2614     Br2615   1.940       .  S
C2619      C2620   1.419       .  A
C2619      C2624   1.401   1_565  A
C2619     Br2626   1.933       .  S
C2620      C2621   1.417       .  A
C2621      C2622   1.421       .  A
C2621     Br2628   1.928       .  S
C2622     Br2627   1.926   1_565  S
C2629      C2630   1.410       .  A
C2629      C2634   1.404       .  A
C2629     Br2636   1.930       .  S
C2630      C2631   1.409       .  A
C2631      C2632   1.409       .  A
C2631     Br2638   1.928       .  S
C2632      C2633   1.408       .  A
C2632     Br2637   1.928       .  S
C2633      C2634   1.405       .  A
C2634     Br2635   1.930       .  S
C2639      C2640   1.422       .  A
C2639      C2644   1.413       .  A
C2639     Br2646   1.926       .  S
C2640      C2641   1.416       .  A
C2641      C2642   1.406       .  A
C2641     Br2648   1.933       .  S
C2642      C2643   1.405       .  A
C2642     Br2647   1.928       .  S
C2643      C2644   1.406       .  A
C2644     Br2645   1.931       .  S
C2649      C2654   1.413       .  A
C2649     Br2656   1.934       .  S
C2651      C2652   1.410       .  A
C2652      C2653   1.411       .  A
C2653      C2654   1.412       .  A
C2654     Br2655   1.933       .  S
C2659      C2660   1.417       .  A
C2659      C2664   1.403       .  A
C2659     Br2666   1.936       .  S
C2660      C2661   1.415       .  A
C2661      C2662   1.419       .  A
C2661     Br2668   1.928       .  S
C2662      C2663   1.414       .  A
C2662     Br2667   1.927       .  S
C2663      C2664   1.412       .  A
C2664     Br2665   1.939       .  S
C2669      C2670   1.415       .  A
C2669      C2674   1.399   1_655  A
C2669     Br2676   1.927       .  S
C2670      C2671   1.416       .  A
C2671      C2672   1.418       .  A
C2671     Br2678   1.924       .  S
C2672     Br2677   1.927   1_655  S
C2679      C2680   1.413       .  A
C2679      C2684   1.407       .  A
C2679     Br2686   1.937       .  S
C2680      C2681   1.413       .  A
C2681      C2682   1.412       .  A
C2681     Br2688   1.932       .  S
C2682      C2683   1.418       .  A
C2682     Br2687   1.935       .  S
C2683      C2684   1.417       .  A
C2684     Br2685   1.928       .  S
