geometry optimzed in LAMMPS
_audit_creation_date              2020-12-01 
_audit_creation_method            'lammps2cif' 
_symmetry_space_group_name_H-M    'P1' 
_symmetry_Int_Tables_number       1 
_symmetry_cell_setting            triclinic 
loop_ 
_symmetry_equiv_pos_as_xyz 
  x,y,z 
_cell_length_a                    55.54180533 
_cell_length_b                    55.52181191898223 
_cell_length_c                    38.99085526523532 
_cell_angle_alpha                 90.01448564612446 
_cell_angle_beta                  89.87142370921798 
_cell_angle_gamma                 90.33993140427562 
loop_ 
_atom_site_label 
_atom_site_type_symbol 
_atom_site_fract_x 
_atom_site_fract_y 
_atom_site_fract_z 
_atom_site_charge 
O1          O  0.60838019  0.11194132  0.63979245    -0.81300
O2          O  0.53613624  0.09542347  0.76158413    -0.66000
O3          O  0.58972954  0.09211402  0.70103377    -1.12600
C4          C  0.54337328  0.03905954  0.63624173     1.05600
O5          O  0.51696612  0.06124510  0.74922066    -0.79200
O6          O  0.55791114  0.03758335  0.73022780    -0.66800
Ni7        Ni  0.60532543  0.12152625  0.68747690     1.34900
C8          C  0.57813776  0.03397072  0.71581308     0.84300
O9          O  0.58097809  0.10997343  0.76563386    -0.79800
O10         O  0.60505486  0.13380736  0.73407576    -0.90000
C11         C  0.51966309  0.08008647  0.76728710     0.83900
O12         O  0.57687776  0.13911941  0.67628492    -0.68200
O13         O  0.53872322  0.03138596  0.66619993    -0.87500
C14         C  0.55691206  0.13996904  0.69214727     0.84700
C15         C  0.59609090  0.12712543  0.76281110     1.06300
H16         H  0.53422279  0.08855457  0.68413693     0.38100
O17         O  0.54565751  0.07794836  0.69498577    -1.10200
O18         O  0.58422172  0.04457183  0.68786915    -0.66800
Ni19       Ni  0.57348976  0.07451070  0.66629166     1.26300
O20         O  0.55096989  0.12458618  0.71481198    -0.67100
O21         O  0.55598127  0.05785913  0.63144477    -0.79400
C22         C  0.61289728  0.09110030  0.62774287     0.84100
O23         O  0.60189905  0.07254155  0.63874361    -0.66500
Ni24       Ni  0.52982047  0.04837067  0.70736660     1.27400
Ni25       Ni  0.56287601  0.09415699  0.73112479     1.26100
H26         H  0.60178699  0.08212474  0.71167400     0.38600
O27         O  0.46756780  0.90362829  0.27808162    -0.81300
O28         O  0.38330758  0.89549939  0.39059903    -0.66000
O29         O  0.44002756  0.88886698  0.33553310    -1.12600
C30         C  0.38862494  0.83736589  0.27099151     1.05600
O31         O  0.38027495  0.85591856  0.39271867    -0.79200
O32         O  0.40763695  0.82585882  0.35539456    -0.66800
Ni33       Ni  0.45657288  0.91746053  0.32063464     1.34900
C34         C  0.42845160  0.82541445  0.34197611     0.84300
O35         O  0.42849296  0.91193502  0.39721013    -0.79800
O36         O  0.44974692  0.93527923  0.36187864    -0.90000
C37         C  0.37368762  0.87660290  0.40299443     0.83900
O38         O  0.42864133  0.92958097  0.29885913    -0.68200
O39         O  0.37806896  0.83278745  0.29945774    -0.87500
C40         C  0.40824556  0.93349419  0.31256288     0.84700
C41         C  0.44209129  0.92995832  0.39168903     1.06300
H42         H  0.38447494  0.88350484  0.31810904     0.38100
O43         O  0.39629402  0.87395462  0.33006009    -1.10200
O44         O  0.43559288  0.84125491  0.32074268    -0.66800
Ni45       Ni  0.42331359  0.87049193  0.30103907     1.26300
O46         O  0.40110079  0.92244608  0.33966566    -0.67100
O47         O  0.40572216  0.85256616  0.26796400    -0.79400
C48         C  0.46536003  0.88353650  0.26277817     0.84100
O49         O  0.45009660  0.86781808  0.27163093    -0.66500
Ni50       Ni  0.38016873  0.84538383  0.34564141     1.27400
Ni51       Ni  0.41191870  0.89333696  0.36350501     1.26100
H52         H  0.45131140  0.87884652  0.34773544     0.38600
O53         O  0.61838975  0.85077167  0.88941802    -0.81300
O54         O  0.63367655  0.77874029  0.00966867    -0.66000
O55         O  0.63720847  0.83323049  0.95087635    -1.12600
C56         C  0.69328645  0.79028103  0.88802435     1.05600
O57         O  0.66837574  0.76063130  0.99809194    -0.79200
O58         O  0.69044888  0.80344672  0.98275564    -0.66800
Ni59       Ni  0.60812852  0.84838859  0.93652785     1.34900
C60         C  0.69433718  0.82383610  0.96890705     0.84300
O61         O  0.61749618  0.82278931  0.01411457    -0.79800
O62         O  0.59529404  0.84806106  0.98255068    -0.90000
C63         C  0.64921785  0.76269857  0.01567314     0.83900
O64         O  0.59050729  0.81994422  0.92487966    -0.68200
O65         O  0.70031050  0.78616513  0.91840906    -0.87500
C66         C  0.59008809  0.79929488  0.93877858     0.84700
C67         C  0.60077931  0.83817092  0.01103426     1.06300
H68         H  0.64270541  0.77808189  0.93234040     0.38100
O69         O  0.65260449  0.78983673  0.94412031    -1.10200
O70         O  0.68504972  0.82971412  0.94003377    -0.66800
Ni71       Ni  0.65606356  0.81824366  0.91643133     1.26300
O72         O  0.60541829  0.79290104  0.96113422    -0.67100
O73         O  0.67408398  0.80174875  0.88213813    -0.79400
C74         C  0.63898705  0.85735106  0.87850845     0.84100
O75         O  0.65791203  0.84724862  0.88959199    -0.66500
Ni76       Ni  0.68223592  0.77521410  0.95783840     1.27400
Ni77       Ni  0.63491094  0.80585648  0.97990761     1.26100
H78         H  0.64667149  0.84537420  0.96250486     0.38600
O79         O  0.82293872  0.70699121  0.53759704    -0.81300
O80         O  0.83463365  0.62234405  0.64844094    -0.66000
O81         O  0.83980971  0.67822415  0.59136830    -1.12600
C82         C  0.88825304  0.62742529  0.52245189     1.05600
O83         O  0.87394328  0.61632325  0.64575092    -0.79200
O84         O  0.90132058  0.64619554  0.60762359    -0.66800
Ni85       Ni  0.81031693  0.69399732  0.57972195     1.34900
C86         C  0.90224742  0.66644808  0.59263229     0.84300
O87         O  0.82035627  0.66820795  0.65560973    -0.79800
O88         O  0.79363786  0.68488927  0.62119836    -0.90000
C89         C  0.85349490  0.61207414  0.65930067     0.83900
O90         O  0.79934615  0.66578620  0.55705611    -0.68200
O91         O  0.89403356  0.61779835  0.55099667    -0.87500
C92         C  0.79539768  0.64568811  0.57172199     0.84700
C93         C  0.80157974  0.68065598  0.65107807     1.06300
H94         H  0.84306970  0.62225811  0.57446539     0.38100
O95         O  0.85342592  0.63420560  0.58498854    -1.10200
O96         O  0.88638753  0.67312271  0.57120130    -0.66800
Ni97       Ni  0.85578263  0.66107496  0.55488414     1.26300
O98         O  0.80593418  0.63967857  0.59967247    -0.67100
O99         O  0.87172231  0.64311743  0.51975873    -0.79400
C100        C  0.84162246  0.70427046  0.51917102     0.84100
O101        O  0.85689766  0.68787182  0.52465802    -0.66500
Ni102      Ni  0.88250512  0.61822525  0.59777521     1.27400
Ni103      Ni  0.83637007  0.65052278  0.62031682     1.26100
H104        H  0.85055794  0.68973009  0.60203638     0.38600
O105        O  0.02242613  0.06174100  0.77948594    -0.81300
O106        O  0.10454848  0.07225573  0.89351896    -0.66000
O107        O  0.04808038  0.07739659  0.83802874    -1.12600
C108        C  0.10062654  0.12659311  0.76988771     1.05600
O109        O  0.10827264  0.11177955  0.89189383    -0.79200
O110        O  0.08529280  0.14258812  0.84885885    -0.66800
Ni111      Ni  0.03217050  0.04859949  0.82331835     1.34900
C112        C  0.06313955  0.14231199  0.84088680     0.84300
O113        O  0.05891688  0.05643817  0.90061322    -0.79800
O114        O  0.03808477  0.03191978  0.86616478    -0.90000
C115        C  0.11414358  0.09154601  0.90462849     0.83900
O116        O  0.06060230  0.03622140  0.80286121    -0.68200
O117        O  0.11416505  0.12837251  0.79625416    -0.87500
C118        C  0.08066857  0.03260451  0.81745110     0.84700
C119        C  0.04508285  0.03843229  0.89593233     1.06300
H120        H  0.10258203  0.08109266  0.81829132     0.38100
O121        O  0.09181819  0.09158472  0.83074401    -1.10200
O122        O  0.05320813  0.12465908  0.82579804    -0.66800
Ni123      Ni  0.06409272  0.09604909  0.80339977     1.26300
O124        O  0.08693331  0.04370756  0.84479037    -0.67100
O125        O  0.08084527  0.11479830  0.76966870    -0.79400
C126        C  0.02255813  0.08258536  0.76581611     0.84100
O127        O  0.03610068  0.09939633  0.77633386    -0.66500
Ni128      Ni  0.11038012  0.11924080  0.84361241     1.27400
Ni129      Ni  0.07607578  0.07366185  0.86598921     1.26100
H130        H  0.03651688  0.08711882  0.85023256     0.38600
O131        O  0.88133633  0.85598951  0.14072570    -0.81300
O132        O  0.95135503  0.86615667  0.26093372    -0.66000
O133        O  0.89684252  0.87329208  0.20419176    -1.12600
C134        C  0.94455728  0.92923603  0.14290806     1.05600
O135        O  0.96442126  0.90397313  0.25979839    -0.79200
O136        O  0.92929108  0.93188417  0.23367931    -0.66800
Ni137      Ni  0.88100115  0.84475782  0.18757457     1.34900
C138        C  0.90853275  0.93454851  0.22072062     0.84300
O139        O  0.90689357  0.85011136  0.26520806    -0.79800
O140        O  0.87882167  0.83133773  0.23338001    -0.90000
C141        C  0.96442689  0.88290614  0.27251509     0.83900
O142        O  0.90842741  0.82524466  0.17728310    -0.68200
O143        O  0.95374681  0.93359651  0.17214715    -0.87500
C144        C  0.92941840  0.82521874  0.18998672     0.84700
C145        C  0.88961451  0.83511161  0.26186567     1.06300
H146        H  0.95167520  0.87929144  0.18650765     0.38100
O147        O  0.94028813  0.88891378  0.19924124    -1.10200
O148        O  0.90101519  0.92214371  0.19518007    -0.66800
Ni149      Ni  0.91236951  0.89344478  0.17118947     1.26300
O150        O  0.93650136  0.84111920  0.21102760    -0.67100
O151        O  0.92898974  0.91271777  0.13798833    -0.79400
C152        C  0.87464745  0.87673523  0.13087859     0.84100
O153        O  0.88386593  0.89558531  0.14396180    -0.66500
Ni154      Ni  0.95713482  0.91700907  0.21521032     1.27400
Ni155      Ni  0.92403740  0.86936183  0.23274177     1.26100
H156        H  0.88499967  0.88254244  0.21664587     0.38600
O157        O  0.16864365  0.76461113  0.52620727    -0.81300
O158        O  0.15732794  0.84341025  0.64492527    -0.66000
O159        O  0.15265735  0.78789677  0.58668726    -1.12600
C160        C  0.09938882  0.83842184  0.52428304     1.05600
O161        O  0.11772451  0.84545493  0.64601216    -0.79200
O162        O  0.08796580  0.81894862  0.60682177    -0.66800
Ni163      Ni  0.18167668  0.77339509  0.57014646     1.34900
C164        C  0.08833214  0.79781728  0.59448618     0.84300
O165        O  0.17511528  0.79843321  0.64893202    -0.79800
O166        O  0.19880769  0.77868746  0.61234311    -0.90000
C167        C  0.13812106  0.85234251  0.65713681     0.83900
O168        O  0.19322409  0.80262356  0.55116880    -0.68200
O169        O  0.09561822  0.84942694  0.55256736    -0.87500
C170        C  0.19634475  0.82258148  0.56638555     0.84700
C171        C  0.19330362  0.78536635  0.64255179     1.06300
H172        H  0.14598896  0.84314878  0.57120029     0.38100
O173        O  0.13651264  0.83106206  0.58301540    -1.10200
O174        O  0.10482828  0.79070280  0.57436430    -0.66800
Ni175      Ni  0.13325339  0.80419318  0.55342250     1.26300
O176        O  0.18505298  0.82818641  0.59385405    -0.67100
O177        O  0.11423750  0.82121564  0.52111852    -0.79400
C178        C  0.14801753  0.76490187  0.51228216     0.84100
O179        O  0.13092679  0.77742808  0.52376743    -0.66500
Ni180      Ni  0.10782163  0.84662279  0.59873713     1.27400
Ni181      Ni  0.15612778  0.81538951  0.61617637     1.26100
H182        H  0.14331410  0.77569319  0.59845570     0.38600
O183        O  0.37605310  0.61693903  0.88974709    -0.81300
O184        O  0.36325882  0.69231635  0.00466127    -0.66000
O185        O  0.35665584  0.63597563  0.95030907    -1.12600
C186        C  0.30401774  0.68201810  0.88270671     1.05600
O187        O  0.32634291  0.70665924  0.99854752    -0.79200
O188        O  0.29952775  0.66978539  0.97481871    -0.66800
Ni189      Ni  0.38502229  0.61859510  0.93755851     1.34900
C190        C  0.29647935  0.64868015  0.96303650     0.84300
O191        O  0.37761346  0.64781407  0.01266539    -0.79800
O192        O  0.39638352  0.61806074  0.98451931    -0.90000
C193        C  0.34654923  0.70633112  0.01360554     0.83900
O194        O  0.40577218  0.64519845  0.92676036    -0.68200
O195        O  0.29873222  0.69132507  0.91148479    -0.87500
C196        C  0.40622739  0.66671946  0.93769181     0.84700
C197        C  0.39204467  0.63011539  0.01178542     1.06300
H198        H  0.35315437  0.69039421  0.92890456     0.38100
O199        O  0.34275230  0.67951881  0.94147778    -1.10200
O200        O  0.30864926  0.64046070  0.93767992    -0.66800
Ni201      Ni  0.33839366  0.65073383  0.91472486     1.26300
O202        O  0.38997588  0.67514025  0.95715132    -0.67100
O203        O  0.32077718  0.66669499  0.87912724    -0.79400
C204        C  0.35554224  0.61150892  0.87731292     0.84100
O205        O  0.33653497  0.62146099  0.88859400    -0.66500
Ni206      Ni  0.31447064  0.69697271  0.95441456     1.27400
Ni207      Ni  0.36038896  0.66410629  0.97754449     1.26100
H208        H  0.34646864  0.62483897  0.96279245     0.38600
O209        O  0.11763811  0.34588704  0.38823062    -0.81300
O210        O  0.13188623  0.27701647  0.50988490    -0.66000
O211        O  0.13659026  0.33135546  0.45118942    -1.12600
C212        C  0.19232540  0.28690121  0.38854383     1.05600
O213        O  0.16901011  0.26267267  0.50425007    -0.79200
O214        O  0.19330458  0.30228158  0.48125560    -0.66800
Ni215      Ni  0.10784846  0.34670035  0.43561359     1.34900
C216        C  0.19649016  0.32231077  0.46614844     0.84300
O217        O  0.11474360  0.32125281  0.51357341    -0.79800
O218        O  0.09596775  0.34925268  0.48184007    -0.90000
C219        C  0.14859452  0.26303900  0.51908175     0.83900
O220        O  0.08823483  0.31883501  0.42755333    -0.68200
O221        O  0.19874070  0.28023082  0.41838653    -0.87500
C222        C  0.08845084  0.29783957  0.44037013     0.84700
C223        C  0.09990020  0.33855587  0.51027079     1.06300
H224        H  0.14293298  0.27618566  0.43430668     0.38100
O225        O  0.15250743  0.28817746  0.44607264    -1.10200
O226        O  0.18500666  0.32816816  0.43903071    -0.66800
Ni227      Ni  0.15570702  0.31606204  0.41722648     1.26300
O228        O  0.10489192  0.29083709  0.46054071    -0.67100
O229        O  0.17377467  0.29954049  0.38338217    -0.79400
C230        C  0.13788500  0.35349196  0.37743708     0.84100
O231        O  0.15710078  0.34451175  0.38929160    -0.66500
Ni232      Ni  0.18187623  0.27339180  0.46075788     1.27400
Ni233      Ni  0.13363481  0.30421596  0.48053549     1.26100
H234        H  0.14612422  0.34345119  0.46286759     0.38600
O235        O  0.32429672  0.21122802  0.03310970    -0.81300
O236        O  0.33280185  0.12580989  0.14378877    -0.66000
O237        O  0.33960443  0.18178439  0.08680193    -1.12600
C238        C  0.38677424  0.12876164  0.01991409     1.05600
O239        O  0.37228243  0.12216508  0.14336252    -0.79200
O240        O  0.40045623  0.15023576  0.10414389    -0.66800
Ni241      Ni  0.31093863  0.19891897  0.07513247     1.34900
C242        C  0.40129395  0.17019895  0.08843951     0.84300
O243        O  0.31914985  0.17180592  0.15069470    -0.79800
O244        O  0.29371321  0.19073988  0.11651046    -0.90000
C245        C  0.35182300  0.11623627  0.15547148     0.83900
O246        O  0.29833609  0.17135888  0.05252114    -0.68200
O247        O  0.39287260  0.12013486  0.04899235    -0.87500
C248        C  0.29387094  0.15116565  0.06669175     0.84700
C249        C  0.30072568  0.18469790  0.14623026     1.06300
H250        H  0.34228298  0.12544634  0.07090156     0.38100
O251        O  0.35248996  0.13759669  0.08124475    -1.10200
O252        O  0.38574294  0.17614185  0.06624565    -0.66800
Ni253      Ni  0.35518924  0.16393058  0.05054032     1.26300
O254        O  0.30481121  0.14418579  0.09394067    -0.67100
O255        O  0.37078105  0.14494362  0.01637381    -0.79400
C256        C  0.34248913  0.20734011  0.01414582     0.84100
O257        O  0.35683793  0.19010645  0.01928306    -0.66500
Ni258      Ni  0.38141446  0.12214010  0.09562000     1.27400
Ni259      Ni  0.33521725  0.15414950  0.11574517     1.26100
H260        H  0.35073667  0.19284670  0.09762110     0.38600
O261        O  0.52230682  0.56402412  0.28213181    -0.81300
O262        O  0.60824934  0.57344992  0.39116262    -0.66000
O263        O  0.55100669  0.57898798  0.33716811    -1.12600
C264        C  0.60032266  0.63235786  0.27224523     1.05600
O265        O  0.61103928  0.61303507  0.39363135    -0.79200
O266        O  0.58164178  0.64234189  0.35784208    -0.66800
Ni267      Ni  0.53655050  0.54946657  0.32190747     1.34900
C268        C  0.56080060  0.64250797  0.34456986     0.84300
O269        O  0.56289259  0.55644367  0.39819451    -0.79800
O270        O  0.54692433  0.53089116  0.36095669    -0.90000
C271        C  0.61789666  0.59233588  0.40349133     0.83900
O272        O  0.56494052  0.54151192  0.29703721    -0.68200
O273        O  0.61058130  0.63708697  0.30080988    -0.87500
C274        C  0.58508300  0.53732799  0.31121958     0.84700
C275        C  0.55104121  0.53741846  0.39162291     1.06300
H276        H  0.60628201  0.58600357  0.31860374     0.38100
O277        O  0.59427546  0.59514469  0.33090684    -1.10200
O278        O  0.55398112  0.62677942  0.32296701    -0.66800
Ni279      Ni  0.56677699  0.59802998  0.30241051     1.26300
O280        O  0.59095055  0.54668622  0.34011429    -0.67100
O281        O  0.58360169  0.61672446  0.26901082    -0.79400
C282        C  0.52346765  0.58418406  0.26678526     0.84100
O283        O  0.53929093  0.59994567  0.27369502    -0.66500
Ni284      Ni  0.60969175  0.62399176  0.34669622     1.27400
Ni285      Ni  0.57936817  0.57530943  0.36454811     1.26100
H286        H  0.53922086  0.58832883  0.34956395     0.38600
O287        O  0.38133084  0.35594887  0.63788142    -0.81300
O288        O  0.45327151  0.36605352  0.75550353    -0.66000
O289        O  0.39844107  0.37535826  0.69923057    -1.12600
C290        C  0.44811308  0.42527165  0.63315796     1.05600
O291        O  0.47028194  0.40215777  0.74941978    -0.79200
O292        O  0.43321163  0.42974184  0.72612226    -0.66800
Ni293      Ni  0.37943596  0.34809939  0.68584891     1.34900
C294        C  0.41298613  0.43388151  0.71216811     0.84300
O295        O  0.40747360  0.35340535  0.76179349    -0.79800
O296        O  0.37579815  0.33833448  0.73283680    -0.90000
C297        C  0.46876731  0.38172430  0.76407310     0.83900
O298        O  0.40426730  0.32484161  0.67894802    -0.68200
O299        O  0.45543144  0.43165594  0.66274121    -0.87500
C300        C  0.42589534  0.32390672  0.68917416     0.84700
C301        C  0.38801665  0.34111023  0.76027687     1.06300
H302        H  0.45374522  0.37648304  0.68027776     0.38100
O303        O  0.44287475  0.38718666  0.69212607    -1.10200
O304        O  0.40591995  0.42282357  0.68514935    -0.66800
Ni305      Ni  0.41510486  0.39228545  0.66392844     1.26300
O306        O  0.43547893  0.34042796  0.70709268    -0.67100
O307        O  0.43308077  0.40823731  0.62887124    -0.79400
C308        C  0.37616067  0.37637572  0.62535048     0.84100
O309        O  0.38665806  0.39521234  0.63639735    -0.66500
Ni310      Ni  0.46066777  0.41523132  0.70565515     1.27400
Ni311      Ni  0.42567523  0.37023663  0.72753038     1.26100
H312        H  0.38778199  0.38626511  0.71110143     0.38600
O313        O  0.87120948  0.12189854  0.39073108    -0.81300
O314        O  0.85970496  0.19262800  0.50957600    -0.66000
O315        O  0.85235787  0.13733942  0.45335494    -1.12600
C316        C  0.79702529  0.18320031  0.39195776     1.05600
O317        O  0.82171460  0.20501232  0.50773861    -0.79200
O318        O  0.79652169  0.16638446  0.48428090    -0.66800
Ni319      Ni  0.88016706  0.12008888  0.43838369     1.34900
C320        C  0.79294254  0.14637056  0.46932466     0.84300
O321        O  0.87616952  0.14827109  0.51400819    -0.79800
O322        O  0.89103868  0.11662961  0.48502136    -0.90000
C323        C  0.84273011  0.20563871  0.52061009     0.83900
O324        O  0.90201258  0.14638685  0.43112770    -0.68200
O325        O  0.79091985  0.18956744  0.42212406    -0.87500
C326        C  0.90188287  0.16824317  0.44062381     0.84700
C327        C  0.88888166  0.12926306  0.51225927     1.06300
H328        H  0.84642188  0.19276573  0.43567110     0.38100
O329        O  0.83707918  0.18066314  0.44804158    -1.10200
O330        O  0.80399458  0.14062424  0.44171052    -0.66800
Ni331      Ni  0.83327672  0.15282839  0.41948852     1.26300
O332        O  0.88498982  0.17708686  0.45858959    -0.67100
O333        O  0.81504297  0.16981534  0.38614774    -0.79400
C334        C  0.85078699  0.11548066  0.37915659     0.84100
O335        O  0.83168421  0.12459033  0.39133078    -0.66500
Ni336      Ni  0.80817447  0.19540253  0.46429137     1.27400
Ni337      Ni  0.85670807  0.16489707  0.48147965     1.26100
H338        H  0.84245017  0.12599144  0.46589752     0.38600
O339        O  0.66492728  0.25531285  0.03477210    -0.81300
O340        O  0.65713802  0.34403492  0.13971540    -0.66000
O341        O  0.65063350  0.28492187  0.08972528    -1.12600
C342        C  0.60347369  0.33529738  0.01616241     1.05600
O343        O  0.61777803  0.34724062  0.13684047    -0.79200
O344        O  0.58627739  0.32423528  0.09564827    -0.66800
Ni345      Ni  0.67911836  0.26829942  0.07613622     1.34900
C346        C  0.58594248  0.30162436  0.09104935     0.84300
O347        O  0.67231409  0.29846221  0.15072116    -0.79800
O348        O  0.69677819  0.27741483  0.11685205    -0.90000
C349        C  0.63779409  0.35436963  0.14895082     0.83900
O350        O  0.69085662  0.29555459  0.05164070    -0.68200
O351        O  0.60239513  0.35027283  0.04101750    -0.87500
C352        C  0.69520437  0.31622484  0.06429900     0.84700
C353        C  0.69033572  0.28476048  0.14642693     1.06300
H354        H  0.64839725  0.33819515  0.06440532     0.38100
O355        O  0.63763167  0.32835363  0.07805226    -1.10200
O356        O  0.60341955  0.29036256  0.07770260    -0.66800
Ni357      Ni  0.63222841  0.29945747  0.05371656     1.26300
O358        O  0.68509906  0.32359067  0.09188879    -0.67100
O359        O  0.61389090  0.31489250  0.01829323    -0.79400
C360        C  0.64413561  0.25544989  0.02106051     0.84100
O361        O  0.62799227  0.27024047  0.02968149    -0.66500
Ni362      Ni  0.61076650  0.34816509  0.08871254     1.27400
Ni363      Ni  0.65517873  0.31419533  0.11481919     1.26100
H364        H  0.64073758  0.27403289  0.10309541     0.38600
O365        O  0.11081042  0.61262538  0.13729560    -0.81300
O366        O  0.04080501  0.60082782  0.26076618    -0.66000
O367        O  0.09475147  0.59477633  0.20074326    -1.12600
C368        C  0.04861818  0.53981350  0.13930978     1.05600
O369        O  0.02188614  0.56608163  0.25066611    -0.79200
O370        O  0.06234127  0.54134100  0.23347309    -0.66800
Ni371      Ni  0.11106947  0.62297167  0.18450253     1.34900
C372        C  0.08255329  0.53684400  0.21960632     0.84300
O373        O  0.08589338  0.61629523  0.26323862    -0.79800
O374        O  0.11310140  0.63567188  0.23027343    -0.90000
C375        C  0.02452717  0.58541642  0.26769947     0.83900
O376        O  0.08380436  0.64265864  0.17516633    -0.68200
O377        O  0.04334235  0.53328721  0.16962772    -0.87500
C378        C  0.06338576  0.64370330  0.18967455     0.79900
C379        C  0.10276798  0.63169321  0.25903483     1.06300
H380        H  0.03951652  0.59080977  0.18359725     0.38100
O381        O  0.05080390  0.58061348  0.19548782    -1.10200
O382        O  0.08916288  0.54663663  0.19122941    -0.66800
Ni383      Ni  0.07874281  0.57593713  0.16725992     1.26300
O384        O  0.05616000  0.62801271  0.21112672    -0.67100
O385        O  0.06137625  0.55831736  0.13347229    -0.79400
C386        C  0.11653178  0.59189469  0.12623879     0.84100
O387        O  0.10722215  0.57313974  0.13952421    -0.66500
Ni388      Ni  0.03455479  0.55173533  0.20966388     1.27400
Ni389      Ni  0.06781299  0.59842875  0.23039424     1.26100
H390        H  0.10657914  0.58506478  0.21240872     0.38600
O391        O  0.97050192  0.40687443  0.78250820    -0.81300
O392        O  0.88683086  0.39525938  0.89538234    -0.66000
O393        O  0.94303894  0.38999006  0.83859788    -1.12600
C394        C  0.89138393  0.34024891  0.77237217     1.05600
O395        O  0.88302137  0.35578197  0.89519146    -0.79200
O396        O  0.91144564  0.32757380  0.85660516    -0.66800
Ni397      Ni  0.95884322  0.41942347  0.82545629     1.34900
C398        C  0.93168999  0.32708307  0.84155024     0.84300
O399        O  0.93272147  0.41039180  0.90226401    -0.79800
O400        O  0.95114674  0.43616821  0.86740615    -0.90000
C401        C  0.87646975  0.37627633  0.90613739     0.83900
O402        O  0.93048451  0.43070276  0.80392048    -0.68200
O403        O  0.88197486  0.33455566  0.80120104    -0.87500
C404        C  0.91047055  0.43438712  0.81880442     0.84700
C405        C  0.94572555  0.42891383  0.89737242     1.06300
H406        H  0.88706945  0.38537572  0.82249578     0.38100
O407        O  0.89913747  0.37546276  0.83326610    -1.10200
O408        O  0.93820908  0.34307557  0.82009224    -0.66800
Ni409      Ni  0.92578828  0.37311334  0.80302421     1.26300
O410        O  0.90433698  0.42331182  0.84631518    -0.67100
O411        O  0.90758010  0.35642034  0.76902534    -0.79400
C412        C  0.96788607  0.38770259  0.76508657     0.84100
O413        O  0.95227967  0.37182550  0.77238830    -0.66500
Ni414      Ni  0.88348800  0.34634746  0.84764995     1.27400
Ni415      Ni  0.91530334  0.39344474  0.86769137     1.26100
H416        H  0.95458837  0.37958295  0.84957713     0.38600
C417        C  0.95520967  0.44264866  0.92702658    -0.03800
C418        C  0.97015944  0.46284605  0.92140814    -0.09600
C419        C  0.98127257  0.47453959  0.94882605    -0.17200
C420        C  0.97761216  0.46633486  0.98229409     0.24900
C421        C  0.96234255  0.44661768  0.98839521    -0.18900
C422        C  0.95116771  0.43481422  0.96089916    -0.07800
C423        C  0.99021115  0.47788458  0.00998171    -0.14200
C424        C  0.00159868  0.48802531  0.03196953    -0.14000
C425        C  0.01521986  0.50030316  0.05799379     0.24800
C426        C  0.01802926  0.48968568  0.09022053    -0.19400
C427        C  0.02993203  0.50214731  0.11630032    -0.07800
C428        C  0.03926017  0.52539246  0.11040801    -0.03900
C429        C  0.03721837  0.53556421  0.07751821    -0.09200
C430        C  0.02514508  0.52309894  0.05148598    -0.16900
H431        H  0.97377450  0.46933092  0.89570812     0.11300
H432        H  0.99306887  0.48976450  0.94384338     0.10600
H433        H  0.95941317  0.44012690  0.01428093     0.10500
H434        H  0.93987237  0.41926601  0.96607576     0.11000
H435        H  0.01053244  0.47199795  0.09543372     0.11100
H436        H  0.03130424  0.49382666  0.14133395     0.11100
H437        H  0.04405469  0.55350933  0.07232488     0.11200
H438        H  0.02309264  0.53144382  0.02655388     0.10000
C439        C  0.71347753  0.33161754  0.04698023    -0.03800
C440        C  0.72235728  0.35274588  0.06258511    -0.09600
C441        C  0.74138103  0.36572038  0.04755344    -0.17200
C442        C  0.75157776  0.35783507  0.01666263     0.24900
C443        C  0.74220896  0.33739773  0.00037173    -0.18900
C444        C  0.72333606  0.32440368  0.01532863    -0.07800
C445        C  0.77286855  0.36915828  0.00270634    -0.14200
C446        C  0.79170092  0.37487494  0.98941179    -0.14000
C447        C  0.81449414  0.37683960  0.97184628     0.24800
C448        C  0.82941065  0.35665030  0.97052652    -0.19400
C449        C  0.85018951  0.35692699  0.95034925    -0.07800
C450        C  0.85652531  0.37751663  0.93130446    -0.03900
C451        C  0.84204433  0.39816292  0.93386586    -0.09200
C452        C  0.82101775  0.39776169  0.95389023    -0.16900
H453        H  0.71516752  0.35879404  0.08692330     0.11300
H454        H  0.74855335  0.38146162  0.06048559     0.10600
H455        H  0.74998809  0.33106244  0.97652612     0.10500
H456        H  0.71689093  0.30833403  0.00245810     0.11000
H457        H  0.82452545  0.34033537  0.98418956     0.11100
H458        H  0.86096080  0.34075882  0.94889755     0.11100
H459        H  0.84634534  0.41416285  0.91914102     0.11200
H460        H  0.80951811  0.41344648  0.95450085     0.10000
C461        C  0.84739543  0.22219331  0.54958097    -0.03800
C462        C  0.86821627  0.21978332  0.56974611    -0.09600
C463        C  0.87268567  0.23574855  0.59674096    -0.17200
C464        C  0.85650952  0.25435366  0.60374471     0.24900
C465        C  0.83574134  0.25686097  0.58390682    -0.18900
C466        C  0.83115228  0.24084701  0.55705383    -0.07800
C467        C  0.86118752  0.27081301  0.63137218    -0.14200
C468        C  0.86531808  0.28421879  0.65492021    -0.14000
C469        C  0.87070906  0.29931984  0.68381644     0.24800
C470        C  0.88672455  0.31871201  0.68032742    -0.19400
C471        C  0.89308121  0.33245519  0.70898322    -0.07800
C472        C  0.88345256  0.32691424  0.74149436    -0.03900
C473        C  0.86691898  0.30771022  0.74448812    -0.09200
C474        C  0.86064165  0.29400308  0.71583471    -0.16900
H475        H  0.88098737  0.20553270  0.56474305     0.11300
H476        H  0.88877553  0.23362350  0.61208331     0.10600
H477        H  0.82311686  0.27121015  0.58915534     0.10500
H478        H  0.81502829  0.24324912  0.54190041     0.11000
H479        H  0.89461352  0.32294440  0.65559703     0.11100
H480        H  0.90583325  0.34711646  0.70576226     0.11100
H481        H  0.85917214  0.30292913  0.76908742     0.11200
H482        H  0.84824422  0.27899793  0.71877222     0.10000
C483        C  0.78268779  0.19232903  0.36283330    -0.03800
C484        C  0.76114770  0.20489379  0.36894247    -0.09600
C485        C  0.74905537  0.21613456  0.34205243    -0.17200
C486        C  0.75830884  0.21503721  0.30873316     0.24900
C487        C  0.77927133  0.20192335  0.30213681    -0.18900
C488        C  0.79138605  0.19057055  0.32901211    -0.07800
C489        C  0.74691908  0.22837136  0.28173247    -0.14200
C490        C  0.73774326  0.24008191  0.25933907    -0.14000
C491        C  0.72712024  0.25354341  0.23182132     0.24800
C492        C  0.73705807  0.25213471  0.19893900    -0.19400
C493        C  0.72575623  0.26345975  0.17144020    -0.07800
C494        C  0.70427107  0.27636682  0.17643708    -0.03900
C495        C  0.69503467  0.27867168  0.20990005    -0.09200
C496        C  0.70638166  0.26723667  0.23742832    -0.16900
H497        H  0.75393610  0.20658410  0.39465219     0.11300
H498        H  0.73282089  0.22620365  0.34740425     0.10600
H499        H  0.78658065  0.20098506  0.27638731     0.10500
H500        H  0.80798313  0.18117890  0.32349169     0.11000
H501        H  0.75317887  0.24170132  0.19436502     0.11100
H502        H  0.73343308  0.26140362  0.14606004     0.11100
H503        H  0.67850577  0.28839449  0.21457862     0.11200
H504        H  0.69860512  0.26850501  0.26286801     0.10000
C505        C  0.48585538  0.37605178  0.79211030    -0.03800
C506        C  0.50262814  0.39342835  0.80336746    -0.09600
C507        C  0.51915514  0.38793835  0.82915494    -0.17200
C508        C  0.51925236  0.36501917  0.84403911     0.24900
C509        C  0.50262847  0.34759395  0.83312792    -0.18900
C510        C  0.48603229  0.35304653  0.80734648    -0.07800
C511        C  0.53612848  0.35963431  0.87093820    -0.14200
C512        C  0.54977846  0.35576103  0.89429953    -0.14000
C513        C  0.56489335  0.35160482  0.92366105     0.24800
C514        C  0.58004117  0.33155907  0.92483255    -0.19400
C515        C  0.59319891  0.32658318  0.95455638    -0.07800
C516        C  0.59138175  0.34165464  0.98351358    -0.03900
C517        C  0.57672517  0.36221240  0.98156970    -0.09200
C518        C  0.56356084  0.36708907  0.95189854    -0.16900
H519        H  0.50303780  0.41128687  0.79222336     0.11300
H520        H  0.53186877  0.40159664  0.83749516     0.10600
H521        H  0.50248283  0.32980457  0.84454710     0.10500
H522        H  0.47345052  0.33921104  0.79923665     0.11000
H523        H  0.58126318  0.31947624  0.90308303     0.11100
H524        H  0.60437609  0.31067058  0.95508912     0.11100
H525        H  0.57487002  0.37420413  0.00330767     0.11200
H526        H  0.55190973  0.38266716  0.95127481     0.10000
C527        C  0.63789894  0.37481103  0.17345859    -0.03800
C528        C  0.65948620  0.38492196  0.18585693    -0.09600
C529        C  0.65901742  0.40563370  0.20653983    -0.17200
C530        C  0.63699871  0.41638083  0.21503331     0.24900
C531        C  0.61550286  0.40601129  0.20349386    -0.18900
C532        C  0.61591552  0.38544728  0.18296577    -0.07800
C533        C  0.63599445  0.43860798  0.23420181    -0.14200
C534        C  0.63208381  0.45746628  0.24861546    -0.14000
C535        C  0.62384237  0.47963277  0.26394835     0.24800
C536        C  0.61163580  0.49641579  0.24371714    -0.19400
C537        C  0.60022164  0.51609540  0.25896853    -0.07800
C538        C  0.60101572  0.51941445  0.29470724    -0.03900
C539        C  0.61454157  0.50332828  0.31468010    -0.09200
C540        C  0.62571907  0.48342127  0.29939246    -0.16900
H541        H  0.67667893  0.37719703  0.17892450     0.11300
H542        H  0.67579567  0.41351022  0.21530770     0.10600
H543        H  0.59835541  0.41412353  0.20981492     0.10500
H544        H  0.59893215  0.37820322  0.17391815     0.11000
H545        H  0.60999556  0.49370134  0.21629716     0.11100
H546        H  0.58997274  0.52823095  0.24297239     0.11100
H547        H  0.61521448  0.50529429  0.34229856     0.11200
H548        H  0.63495661  0.47048691  0.31538027     0.10000
C549        C  0.45798032  0.43826258  0.60303262    -0.03800
C550        C  0.45499769  0.42923246  0.56954881    -0.09600
C551        C  0.46654230  0.44046228  0.54178756    -0.17200
C552        C  0.48105826  0.46082840  0.54723993     0.24900
C553        C  0.48369439  0.47014340  0.58029382    -0.18900
C554        C  0.47227877  0.45898663  0.60796119    -0.07800
C555        C  0.49365429  0.47221062  0.51932129    -0.14200
C556        C  0.50479436  0.48270348  0.49733270    -0.14000
C557        C  0.51795740  0.49575189  0.47148580     0.24800
C558        C  0.52880310  0.51792189  0.47929473    -0.19400
C559        C  0.54059655  0.53112323  0.45364177    -0.07800
C560        C  0.54153634  0.52229677  0.41984977    -0.03900
C561        C  0.53108687  0.49970788  0.41254570    -0.09200
C562        C  0.51940169  0.48655119  0.43820021    -0.16900
H563        H  0.44429920  0.41318978  0.56494540     0.11300
H564        H  0.46441023  0.43310371  0.51622876     0.10600
H565        H  0.49485613  0.48590325  0.58477329     0.10500
H566        H  0.47500830  0.46641556  0.63334651     0.11000
H567        H  0.52775266  0.52520343  0.50503571     0.11100
H568        H  0.54824952  0.54854273  0.45999160     0.11100
H569        H  0.53144558  0.49241185  0.38679073     0.11200
H570        H  0.51110040  0.46940517  0.43191210     0.10000
C571        C  0.56397351  0.28769661  0.10019912    -0.03800
C572        C  0.54196886  0.29939054  0.10652389    -0.09600
C573        C  0.52070708  0.28599962  0.11081066    -0.17200
C574        C  0.52122193  0.26080060  0.10912960     0.24900
C575        C  0.54316032  0.24904872  0.10420359    -0.18900
C576        C  0.56436211  0.26235034  0.09976985    -0.07800
C577        C  0.49924072  0.24688476  0.11033530    -0.14200
C578        C  0.48146099  0.23430011  0.10917926    -0.14000
C579        C  0.46082818  0.21861226  0.10569373     0.24800
C580        C  0.46162068  0.19498759  0.11818621    -0.19400
C581        C  0.44204470  0.17937401  0.11330545    -0.07800
C582        C  0.42145509  0.18712894  0.09555342    -0.03900
C583        C  0.42074235  0.21100714  0.08342313    -0.09200
C584        C  0.44027783  0.22661464  0.08851324    -0.16900
H585        H  0.54101768  0.31886475  0.10685702     0.11300
H586        H  0.50381098  0.29530611  0.11452935     0.10600
H587        H  0.54379308  0.22956930  0.10285322     0.10500
H588        H  0.58097284  0.25276029  0.09509818     0.11000
H589        H  0.47749580  0.18853143  0.13131718     0.11100
H590        H  0.44325275  0.16108699  0.12276698     0.11100
H591        H  0.40516477  0.21758318  0.06972502     0.11200
H592        H  0.43948147  0.24482589  0.07861744     0.10000
C593        C  0.37960722  0.32854642  0.79159233    -0.03800
C594        C  0.39190296  0.33143696  0.82286161    -0.09600
C595        C  0.38576284  0.31728805  0.85121890    -0.17200
C596        C  0.36730614  0.30013531  0.84867427     0.24900
C597        C  0.35426650  0.29786815  0.81821474    -0.18900
C598        C  0.36030415  0.31202977  0.78986311    -0.07800
C599        C  0.36257241  0.28405271  0.87672343    -0.14200
C600        C  0.35914667  0.27030605  0.90010399    -0.14000
C601        C  0.35500614  0.25431651  0.92845230     0.24800
C602        C  0.37027538  0.23475567  0.93406900    -0.19400
C603        C  0.36631737  0.21947168  0.96203848    -0.07800
C604        C  0.34697829  0.22359349  0.98468182    -0.03900
C605        C  0.33176717  0.24333130  0.97869769    -0.09200
C606        C  0.33577678  0.25855675  0.95076872    -0.16900
H607        H  0.40673315  0.34408285  0.82514346     0.11300
H608        H  0.39586171  0.31924347  0.87481012     0.10600
H609        H  0.33987666  0.28469294  0.81607014     0.10500
H610        H  0.35040455  0.30938454  0.76625387     0.11000
H611        H  0.38524233  0.23135133  0.91690087     0.11100
H612        H  0.37834718  0.20443195  0.96585936     0.11100
H613        H  0.31673766  0.24704656  0.99558218     0.11200
H614        H  0.32389392  0.27368317  0.94662258     0.10000
C615        C  0.06821557  0.28101591  0.43263607    -0.03800
C616        C  0.06596070  0.25897699  0.45033339    -0.09600
C617        C  0.04574708  0.24416917  0.44552100    -0.17200
C618        C  0.02751841  0.25103118  0.42283296     0.24900
C619        C  0.02989265  0.27257648  0.40444095    -0.18900
C620        C  0.05005807  0.28745920  0.40927106    -0.07800
C621        C  0.00585600  0.23663467  0.41980910    -0.14200
C622        C  0.98731327  0.22511257  0.41919406    -0.14000
C623        C  0.96494191  0.21176390  0.42139739     0.24800
C624        C  0.94594362  0.22080451  0.44112081    -0.19400
C625        C  0.92503233  0.20707002  0.44615476    -0.07800
C626        C  0.92279472  0.18392742  0.43165908    -0.03900
C627        C  0.94161549  0.17536361  0.41072395    -0.09200
C628        C  0.96252537  0.18919678  0.40565425    -0.16900
H629        H  0.07948796  0.25345559  0.46863751     0.11300
H630        H  0.04411387  0.22759892  0.46003769     0.10600
H631        H  0.01590324  0.27813686  0.38687119     0.10500
H632        H  0.05116528  0.30425238  0.39522899     0.11000
H633        H  0.94755265  0.23823670  0.45343029     0.11100
H634        H  0.91096945  0.21427699  0.46239885     0.11100
H635        H  0.94048633  0.15770246  0.39903039     0.11200
H636        H  0.97705731  0.18200020  0.39024282     0.10000
C637        C  0.35795871  0.37755408  0.59766128    -0.03800
C638        C  0.34990055  0.35611127  0.58207688    -0.09600
C639        C  0.33082200  0.35635997  0.55889268    -0.17200
C640        C  0.31938104  0.37799101  0.55086924     0.24900
C641        C  0.32777433  0.39961118  0.56521606    -0.18900
C642        C  0.34706575  0.39942712  0.58841042    -0.07800
C643        C  0.29767416  0.37716878  0.53071145    -0.14200
C644        C  0.27871004  0.37279553  0.51692817    -0.14000
C645        C  0.25614436  0.36328647  0.50455804     0.24800
C646        C  0.24969387  0.36521559  0.46994191    -0.19400
C647        C  0.22926092  0.35304770  0.45764339    -0.07800
C648        C  0.21535831  0.33855082  0.47979668    -0.03900
C649        C  0.22149486  0.33749540  0.51471099    -0.09200
C650        C  0.24165589  0.34986435  0.52698728    -0.16900
H651        H  0.35790653  0.33896170  0.58851498     0.11300
H652        H  0.32443069  0.33949934  0.54813436     0.10600
H653        H  0.31893029  0.41645077  0.55938067     0.10500
H654        H  0.35278953  0.41619167  0.60011144     0.11000
H655        H  0.26089293  0.37536595  0.45226906     0.11100
H656        H  0.22510181  0.35390570  0.43054707     0.11100
H657        H  0.21110874  0.32647612  0.53233375     0.11200
H658        H  0.24650956  0.34814338  0.55377754     0.10000
C659        C  0.20680779  0.27893627  0.35893437    -0.03800
C660        C  0.19675429  0.27847494  0.32585464    -0.09600
C661        C  0.20886368  0.26707231  0.29898765    -0.17200
C662        C  0.23119189  0.25630775  0.30489069     0.24900
C663        C  0.24197036  0.25801544  0.33714893    -0.18900
C664        C  0.22985718  0.26924794  0.36406417    -0.07800
C665        C  0.24242411  0.24221878  0.27860878    -0.14200
C666        C  0.25176771  0.22986919  0.25709598    -0.14000
C667        C  0.26290470  0.21597645  0.23051887     0.24800
C668        C  0.28505660  0.20477034  0.23620230    -0.19400
C669        C  0.29696896  0.19336815  0.20910843    -0.07800
C670        C  0.28683238  0.19327630  0.17607915    -0.03900
C671        C  0.26405653  0.20364680  0.17112026    -0.09200
C672        C  0.25218441  0.21490271  0.19819236    -0.16900
H673        H  0.17902786  0.28578106  0.32115534     0.11300
H674        H  0.20044691  0.26590619  0.27399305     0.10600
H675        H  0.25934341  0.24988412  0.34182761     0.10500
H676        H  0.23815011  0.26956322  0.38917360     0.11000
H677        H  0.29344961  0.20550787  0.26124295     0.11100
H678        H  0.31451378  0.18559623  0.21365051     0.11100
H679        H  0.25571355  0.20372186  0.14604289     0.11200
H680        H  0.23499412  0.22344440  0.19362918     0.10000
C681        C  0.08608961  0.34642645  0.54076765    -0.03800
C682        C  0.07100927  0.36669192  0.53897501    -0.09600
C683        C  0.05701754  0.37341845  0.56716173    -0.17200
C684        C  0.05787327  0.36000917  0.59747240     0.24900
C685        C  0.07300848  0.34001673  0.59970972    -0.18900
C686        C  0.08707069  0.33326575  0.57157628    -0.07800
C687        C  0.04272013  0.36634992  0.62594602    -0.14200
C688        C  0.02965111  0.37101404  0.64968801    -0.14000
C689        C  0.01384110  0.37558380  0.67813919     0.24800
C690        C  0.99706955  0.35804276  0.68809725    -0.19400
C691        C  0.98204979  0.36205377  0.71625386    -0.07800
C692        C  0.98364921  0.38369858  0.73494781    -0.03900
C693        C  0.00040624  0.40136921  0.72446852    -0.09200
C694        C  0.01540159  0.39730796  0.69621564    -0.16900
H695        H  0.06981633  0.37724058  0.51569202     0.11300
H696        H  0.04533064  0.38891131  0.56517791     0.10600
H697        H  0.07373325  0.32948083  0.62306818     0.10500
H698        H  0.09837440  0.31751802  0.57378762     0.11000
H699        H  0.99570120  0.34118012  0.67421945     0.11100
H700        H  0.96930541  0.34810944  0.72349534     0.11100
H701        H  0.00199922  0.41828278  0.73813341     0.11200
H702        H  0.02830247  0.41102679  0.68861997     0.10000
C703        C  0.09781229  0.51829217  0.23623822    -0.03800
C704        C  0.11716429  0.50755274  0.21870811    -0.09600
C705        C  0.12896249  0.48754448  0.23274697    -0.17200
C706        C  0.12169978  0.47819096  0.26456363     0.24900
C707        C  0.10328612  0.48954949  0.28285515    -0.18900
C708        C  0.09148102  0.50940280  0.26891525    -0.07800
C709        C  0.13149869  0.45595624  0.27766896    -0.14200
C710        C  0.13631282  0.43682508  0.29073614    -0.14000
C711        C  0.13774921  0.41419436  0.30892738     0.24800
C712        C  0.11643263  0.40168828  0.31629634    -0.19400
C713        C  0.11677413  0.38131069  0.33723920    -0.07800
C714        C  0.13849816  0.37299620  0.35134873    -0.03900
C715        C  0.16008566  0.38495881  0.34257047    -0.09200
C716        C  0.15968636  0.40550884  0.32153683    -0.16900
H717        H  0.12247122  0.51391219  0.19353810     0.11300
H718        H  0.14317524  0.47891276  0.21828711     0.10600
H719        H  0.09746387  0.48254353  0.30747546     0.10500
H720        H  0.07679355  0.51726531  0.28330903     0.11000
H721        H  0.09934318  0.40817558  0.30676323     0.11100
H722        H  0.09982508  0.37254073  0.34329854     0.11100
H723        H  0.17709625  0.37903289  0.35302806     0.11200
H724        H  0.17633427  0.41502599  0.31605521     0.10000
C725        C  0.27714570  0.63385382  0.97920359    -0.03800
C726        C  0.26575434  0.64220369  0.00926537    -0.09600
C727        C  0.24564993  0.63027670  0.02267803    -0.17200
C728        C  0.23651336  0.60969285  0.00651885     0.24900
C729        C  0.24824382  0.60058032  0.97742590    -0.18900
C730        C  0.26851126  0.61253811  0.96388203    -0.07800
C731        C  0.21439890  0.59906908  0.01919445    -0.14200
C732        C  0.19539708  0.59345232  0.03222399    -0.14000
C733        C  0.17305330  0.59116470  0.05103636     0.24800
C734        C  0.16677850  0.56973576  0.06801939    -0.19400
C735        C  0.14725919  0.56928846  0.09103551    -0.07800
C736        C  0.13406088  0.59038302  0.09751249    -0.03900
C737        C  0.13958884  0.61128225  0.07856756    -0.09200
C738        C  0.15887637  0.61164425  0.05558403    -0.16900
H739        H  0.27195496  0.65841387  0.02202679     0.11300
H740        H  0.23683576  0.63751190  0.04523673     0.10600
H741        H  0.24137342  0.58462560  0.96470633     0.10500
H742        H  0.27684780  0.60561331  0.94080084     0.11000
H743        H  0.17761078  0.55373911  0.06472444     0.11100
H744        H  0.14340285  0.55291839  0.10515853     0.11100
H745        H  0.12962804  0.62775852  0.08258899     0.11200
H746        H  0.16345846  0.62832052  0.04261477     0.10000
C747        C  0.40455992  0.62359290  0.04407170    -0.03800
C748        C  0.40086425  0.63720827  0.07414711    -0.09600
C749        C  0.41316458  0.63166413  0.10434274    -0.17200
C750        C  0.42931497  0.61244919  0.10499718     0.24900
C751        C  0.43300688  0.59868394  0.07538734    -0.18900
C752        C  0.42073458  0.60419235  0.04511448    -0.07800
C753        C  0.44287192  0.60744057  0.13555431    -0.14200
C754        C  0.45541642  0.60352240  0.16008864    -0.14000
C755        C  0.47181728  0.59908456  0.18784518     0.24800
C756        C  0.46986554  0.57795591  0.20721323    -0.19400
C757        C  0.48660583  0.57313790  0.23300042    -0.07800
C758        C  0.50554825  0.58942808  0.23974575    -0.03900
C759        C  0.50715026  0.61077341  0.22038623    -0.09200
C760        C  0.49040765  0.61551851  0.19459409    -0.16900
H761        H  0.38865094  0.65234169  0.07431476     0.11300
H762        H  0.41027426  0.64253453  0.12705144     0.10600
H763        H  0.44558679  0.58384382  0.07559015     0.10500
H764        H  0.42408185  0.59339600  0.02249289     0.11000
H765        H  0.45556783  0.56508813  0.20214858     0.11100
H766        H  0.48475997  0.55660489  0.24752129     0.11100
H767        H  0.52146041  0.62371422  0.22491882     0.11200
H768        H  0.49211727  0.63189634  0.17965759     0.10000
C769        C  0.35449287  0.59351343  0.84907713    -0.03800
C770        C  0.33269030  0.58243394  0.83926105    -0.09600
C771        C  0.33273991  0.56282102  0.81643168    -0.17200
C772        C  0.35453680  0.55430016  0.80295464     0.24900
C773        C  0.37601817  0.56628080  0.81092028    -0.18900
C774        C  0.37602893  0.58567273  0.83369448    -0.07800
C775        C  0.35577683  0.53210863  0.78363844    -0.14200
C776        C  0.36095819  0.51328727  0.76991380    -0.14000
C777        C  0.37165605  0.49159902  0.75630292     0.24800
C778        C  0.38911389  0.47969702  0.77567233    -0.19400
C779        C  0.40201170  0.46056120  0.76154217    -0.07800
C780        C  0.39759331  0.45280480  0.72774430    -0.03900
C781        C  0.37931916  0.46418846  0.70884034    -0.09200
C782        C  0.36652439  0.48356591  0.72299491    -0.16900
H783        H  0.31580312  0.58813102  0.85047143     0.11300
H784        H  0.31595208  0.55376140  0.81039789     0.10600
H785        H  0.39299131  0.55998092  0.80061098     0.10500
H786        H  0.39311907  0.59394046  0.84024433     0.11000
H787        H  0.39333086  0.48572046  0.80142041     0.11100
H788        H  0.41579310  0.45210613  0.77693615     0.11100
H789        H  0.37552582  0.45869816  0.68274563     0.11200
H790        H  0.35315947  0.49269301  0.70763139     0.10000
C791        C  0.14389161  0.75010653  0.48146353    -0.03800
C792        C  0.12240741  0.75227717  0.46267737    -0.09600
C793        C  0.11836863  0.73781606  0.43398829    -0.17200
C794        C  0.13572519  0.72111781  0.42386168     0.24900
C795        C  0.15723663  0.71902989  0.44206118    -0.18900
C796        C  0.16135823  0.73349192  0.47067773    -0.07800
C797        C  0.13127700  0.70571914  0.39521085    -0.14200
C798        C  0.12731339  0.69243701  0.37162149    -0.14000
C799        C  0.12201567  0.67653580  0.34382924     0.24800
C800        C  0.10519109  0.65799352  0.34833605    -0.19400
C801        C  0.09931076  0.64296326  0.32093287    -0.07800
C802        C  0.11026935  0.64635770  0.28872234    -0.03900
C803        C  0.12745344  0.66489259  0.28466066    -0.09200
C804        C  0.13326514  0.67990505  0.31211170    -0.16900
H805        H  0.10870637  0.76505132  0.47019539     0.11300
H806        H  0.10166977  0.73951195  0.41989492     0.10600
H807        H  0.17072888  0.70609375  0.43429811     0.10500
H808        H  0.17807709  0.73143524  0.48457675     0.11000
H809        H  0.09640336  0.65535007  0.37290123     0.11100
H810        H  0.08592997  0.62896203  0.32485883     0.11100
H811        H  0.13610662  0.66809743  0.26015531     0.11200
H812        H  0.14629037  0.69429671  0.30849743     0.10000
C813        C  0.20869210  0.77680087  0.67093578    -0.03800
C814        C  0.23089180  0.76573781  0.66362295    -0.09600
C815        C  0.24400820  0.75452820  0.68954558    -0.17200
C816        C  0.23516825  0.75418981  0.72312600     0.24900
C817        C  0.21364366  0.76603996  0.73098137    -0.18900
C818        C  0.20049163  0.77736592  0.70505841    -0.07800
C819        C  0.24745315  0.74049533  0.74900711    -0.14200
C820        C  0.25704664  0.72841273  0.77067540    -0.14000
C821        C  0.26766232  0.71450891  0.79782580     0.24800
C822        C  0.25797220  0.71593329  0.83083137    -0.19400
C823        C  0.26908487  0.70407117  0.85798267    -0.07800
C824        C  0.29020901  0.69061204  0.85264415    -0.03900
C825        C  0.29920806  0.68827784  0.81906964    -0.09200
C826        C  0.28799630  0.70025017  0.79179887    -0.16900
H827        H  0.23781084  0.76509597  0.63764824     0.11300
H828        H  0.26067834  0.74550167  0.68319019     0.10600
H829        H  0.20665898  0.76589932  0.75694553     0.10500
H830        H  0.18345693  0.78563735  0.71147273     0.11000
H831        H  0.24216783  0.72676134  0.83578294     0.11100
H832        H  0.26154792  0.70615146  0.88344796     0.11100
H833        H  0.31547343  0.67817766  0.81415795     0.11200
H834        H  0.29557088  0.69894492  0.76624478     0.10000
C835        C  0.94631210  0.80544250  0.18141945    -0.03800
C836        C  0.93995333  0.78711051  0.15811928    -0.09600
C837        C  0.95514769  0.76733670  0.15305217    -0.17200
C838        C  0.97684294  0.76566573  0.17115614     0.24900
C839        C  0.98358874  0.78412146  0.19360693    -0.18900
C840        C  0.96853714  0.80386290  0.19863389    -0.07800
C841        C  0.99165940  0.74452365  0.16844046    -0.14200
C842        C  0.00412278  0.72679639  0.16904628    -0.14000
C843        C  0.01862134  0.70552022  0.17278060     0.24800
C844        C  0.03976683  0.70265462  0.15360676    -0.19400
C845        C  0.05415624  0.68229064  0.15841289    -0.07800
C846        C  0.04751998  0.66451423  0.18248272    -0.03900
C847        C  0.02611143  0.66754626  0.20136729    -0.09200
C848        C  0.01184416  0.68788970  0.19657940    -0.16900
H849        H  0.92301580  0.78774792  0.14446500     0.11300
H850        H  0.94971837  0.75311003  0.13564008     0.10600
H851        H  0.00027281  0.78300132  0.20786129     0.10500
H852        H  0.97405074  0.81755073  0.21683544     0.11000
H853        H  0.04526519  0.71626723  0.13524249     0.11100
H854        H  0.07059006  0.68062946  0.14362799     0.11100
H855        H  0.02054884  0.65440259  0.22035856     0.11200
H856        H  0.99561970  0.68998597  0.21174790     0.10000
C857        C  0.84974372  0.09716534  0.35159065    -0.03800
C858        C  0.87042297  0.09233962  0.33194083    -0.09600
C859        C  0.87088741  0.07280916  0.30938966    -0.17200
C860        C  0.85079007  0.05766480  0.30623824     0.24900
C861        C  0.82970609  0.06293053  0.32454521    -0.18900
C862        C  0.82911701  0.08270230  0.34695036    -0.07800
C863        C  0.85311680  0.03548886  0.28720827    -0.14200
C864        C  0.85856692  0.01661004  0.27393482    -0.14000
C865        C  0.86889655  0.99445876  0.26141694     0.24800
C866        C  0.86337022  0.98550313  0.22871977    -0.19400
C867        C  0.87533771  0.96515989  0.21593210    -0.07800
C868        C  0.89318078  0.95374983  0.23558224    -0.03900
C869        C  0.89801409  0.96250342  0.26878319    -0.09200
C870        C  0.88594663  0.98261318  0.28155583    -0.16900
H871        H  0.88654914  0.10320993  0.33483342     0.11300
H872        H  0.88732730  0.06891206  0.29548981     0.10600
H873        H  0.81407851  0.05125522  0.32253411     0.10500
H874        H  0.81300494  0.08590821  0.36192712     0.11000
H875        H  0.85031098  0.99458848  0.21278273     0.11100
H876        H  0.87139681  0.95901134  0.19018068     0.11100
H877        H  0.91159392  0.95413705  0.28463919     0.11200
H878        H  0.89044397  0.98935175  0.30684890     0.10000
C879        C  0.08532463  0.84527875  0.49366317    -0.03800
C880        C  0.09015416  0.83447208  0.46168578    -0.09600
C881        C  0.07562136  0.83925884  0.43338289    -0.17200
C882        C  0.05610696  0.85485660  0.43666557     0.24900
C883        C  0.05143800  0.86611115  0.46805073    -0.18900
C884        C  0.06597460  0.86139835  0.49641592    -0.07800
C885        C  0.04050482  0.85891539  0.40807942    -0.14200
C886        C  0.02709006  0.86252771  0.38453835    -0.14000
C887        C  0.01111886  0.86758939  0.35673013     0.24800
C888        C  0.01234613  0.88997094  0.34042466    -0.19400
C889        C  0.99695156  0.89506778  0.31322679    -0.07800
C890        C  0.98016468  0.87776150  0.30199163    -0.03900
C891        C  0.97895653  0.85530815  0.31872370    -0.09200
C892        C  0.99436353  0.85028343  0.34600047    -0.16900
H893        H  0.10489813  0.82196750  0.45863524     0.11300
H894        H  0.07937608  0.83051126  0.40911936     0.10600
H895        H  0.03633403  0.87823646  0.47073310     0.10500
H896        H  0.06169606  0.86990993  0.52064376     0.11000
H897        H  0.02527074  0.90346081  0.34866593     0.11100
H898        H  0.99836770  0.91246551  0.30081759     0.11100
H899        H  0.96618030  0.84161713  0.31071300     0.11200
H900        H  0.99327266  0.83292035  0.35861235     0.10000
C901        C  0.94802370  0.30649607  0.84808789    -0.03800
C902        C  0.93966484  0.28592277  0.86570271    -0.09600
C903        C  0.95422183  0.26554217  0.86880866    -0.17200
C904        C  0.97739131  0.26546279  0.85460116     0.24900
C905        C  0.98612368  0.28606429  0.83790663    -0.18900
C906        C  0.97157331  0.30642248  0.83462034    -0.07800
C907        C  0.99192197  0.24403285  0.85600827    -0.14200
C908        C  0.00423748  0.22617724  0.85585074    -0.14000
C909        C  0.01910111  0.20498194  0.85429431     0.24800
C910        C  0.04424163  0.20719409  0.85425710    -0.19400
C911        C  0.05869033  0.18670226  0.85131527    -0.07800
C912        C  0.04813325  0.16372685  0.84802986    -0.03900
C913        C  0.02285189  0.16167167  0.84853019    -0.09200
C914        C  0.00846705  0.18213981  0.85174742    -0.16900
H915        H  0.92161145  0.28528687  0.87621752     0.11300
H916        H  0.94723551  0.24970168  0.88174822     0.10600
H917        H  0.00403396  0.28623509  0.82683363     0.10500
H918        H  0.97860756  0.32192476  0.82094928     0.11000
H919        H  0.05267621  0.22479646  0.85598023     0.11100
H920        H  0.07806819  0.18891050  0.85046207     0.11100
H921        H  0.01417724  0.14424382  0.84593928     0.11200
H922        H  0.98904665  0.18017517  0.85167184     0.10000
C923        C  0.00657964  0.08735493  0.73624333    -0.03800
C924        C  0.00406605  0.11090250  0.72333275    -0.09600
C925        C  0.98890193  0.11541706  0.69553050    -0.17200
C926        C  0.97613932  0.09648679  0.68019027     0.24900
C927        C  0.97867206  0.07300943  0.69261730    -0.18900
C928        C  0.99374635  0.06845153  0.72049623    -0.07800
C929        C  0.96025042  0.10114494  0.65192866    -0.14200
C930        C  0.94684463  0.10508831  0.62836713    -0.14000
C931        C  0.93110496  0.11029787  0.60014194     0.24800
C932        C  0.92963941  0.09451130  0.57222691    -0.19400
C933        C  0.91537194  0.10029294  0.54392712    -0.07800
C934        C  0.90236840  0.12197146  0.54326386    -0.03900
C935        C  0.90343885  0.13736232  0.57195178    -0.09200
C936        C  0.91776019  0.13157018  0.60012105    -0.16900
H937        H  0.01368666  0.12587307  0.73483321     0.11300
H938        H  0.98707268  0.13366734  0.68608698     0.10600
H939        H  0.96890987  0.05822801  0.68084338     0.10500
H940        H  0.99538388  0.05012463  0.72964611     0.11000
H941        H  0.93985231  0.07794564  0.57207195     0.11100
H942        H  0.91487203  0.08800503  0.52236688     0.11100
H943        H  0.89370063  0.15420349  0.57233129     0.11200
H944        H  0.91874582  0.14389458  0.62163235     0.10000
C945        C  0.09650686  0.01388509  0.80256281    -0.03800
C946        C  0.09347423  0.00692822  0.76813152    -0.09600
C947        C  0.10566601  0.98705269  0.75492325    -0.17200
C948        C  0.12103847  0.97368627  0.77584696     0.24900
C949        C  0.12504638  0.98105481  0.80977751    -0.18900
C950        C  0.11296770  0.00117782  0.82302753    -0.07800
C951        C  0.13079634  0.95143432  0.76281091    -0.14200
C952        C  0.13571042  0.93258167  0.74904642    -0.14000
C953        C  0.13773614  0.91054811  0.72960559     0.24800
C954        C  0.11732493  0.89597220  0.72538007    -0.19400
C955        C  0.11787833  0.87635144  0.70298738    -0.07800
C956        C  0.13892774  0.87089361  0.68445982    -0.03900
C957        C  0.15974581  0.88491062  0.69001105    -0.09200
C958        C  0.15909478  0.90473180  0.71233210    -0.16900
H959        H  0.08107798  0.01643819  0.75162976     0.11300
H960        H  0.10240010  0.98157673  0.72865296     0.10600
H961        H  0.13684014  0.97081315  0.82628712     0.10500
H962        H  0.11558148  0.00604596  0.84966317     0.11000
H963        H  0.10066319  0.90030058  0.73845409     0.11100
H964        H  0.10156118  0.86588236  0.69938907     0.11100
H965        H  0.17614787  0.88125246  0.67592410     0.11200
H966        H  0.17497166  0.91597027  0.71519097     0.10000
C967        C  0.95337812  0.94368379  0.11348435    -0.03800
C968        C  0.95286133  0.93423027  0.08003069    -0.09600
C969        C  0.96451772  0.94635211  0.05316505    -0.17200
C970        C  0.97657416  0.96816109  0.05933248     0.24900
C971        C  0.97624791  0.97820298  0.09223726    -0.18900
C972        C  0.96479418  0.96604174  0.11914894    -0.07800
C973        C  0.98995977  0.97982381  0.03224817    -0.14200
C974        C  0.00132550  0.98940054  0.00956422    -0.14000
C975        C  0.01420852  0.00078399  0.98175910     0.24800
C976        C  0.02603409  0.02285004  0.98679367    -0.19400
C977        C  0.03707833  0.03465705  0.95914007    -0.07800
C978        C  0.03624764  0.02460402  0.92601136    -0.03900
C979        C  0.02496850  0.00205631  0.92147688    -0.09200
C980        C  0.01408742  0.99023704  0.94916927    -0.16900
H981        H  0.94440030  0.91697675  0.07494177     0.11300
H982        H  0.96462159  0.93842642  0.02777203     0.10600
H983        H  0.98537671  0.99513143  0.09729593     0.10500
H984        H  0.96539460  0.97384245  0.14459941     0.11000
H985        H  0.02624690  0.03119315  0.01191443     0.11100
H986        H  0.04547018  0.05204761  0.96345580     0.11100
H987        H  0.02408099  0.99377680  0.89635738     0.11200
H988        H  0.00507148  0.97313207  0.94497626     0.10000
C989        C  0.10778024  0.13949965  0.73815013    -0.03800
C990        C  0.12994952  0.15183386  0.73617595    -0.09600
C991        C  0.13581739  0.16548422  0.70719133    -0.17200
C992        C  0.11965410  0.16703250  0.67982828     0.24900
C993        C  0.09773376  0.15452464  0.68124513    -0.18900
C994        C  0.09183693  0.14080392  0.71015497    -0.07800
C995        C  0.12520173  0.18227404  0.65101402    -0.14200
C996        C  0.12974297  0.19593303  0.62783361    -0.14000
C997        C  0.13468817  0.21299079  0.60091884     0.24800
C998        C  0.15816207  0.21607397  0.58846773    -0.19400
C999        C  0.16282723  0.23258383  0.56213243    -0.07800
C1000       C  0.14403261  0.24628405  0.54800834    -0.03900
C1001       C  0.12057901  0.24330021  0.56115677    -0.09200
C1002       C  0.11596235  0.22672938  0.58734615    -0.16900
H1003       H  0.14261078  0.15127298  0.75723145     0.11300
H1004       H  0.15280541  0.17516342  0.70636757     0.10600
H1005       H  0.08503523  0.15568486  0.66026187     0.10500
H1006       H  0.07455297  0.13167883  0.71086087     0.11000
H1007       H  0.17282368  0.20563777  0.59897839     0.11100
H1008       H  0.18109942  0.23452991  0.55274563     0.11100
H1009       H  0.10569515  0.25351468  0.55087655     0.11200
H1010       H  0.09774615  0.22455873  0.59690870     0.10000
C1011       C  0.13232472  0.09089137  0.93236577    -0.03800
C1012       C  0.14622800  0.07017698  0.93819091    -0.09600
C1013       C  0.16579072  0.07097081  0.96091967    -0.17200
C1014       C  0.17139074  0.09235651  0.97840556     0.24900
C1015       C  0.15678158  0.11256926  0.97405634    -0.18900
C1016       C  0.13748232  0.11189744  0.95117092    -0.07800
C1017       C  0.19331936  0.09480487  0.99801131    -0.14200
C1018       C  0.21194615  0.10057035  0.01186332    -0.14000
C1019       C  0.23376425  0.11149442  0.02494721     0.24800
C1020       C  0.24450845  0.13024997  0.00638291    -0.19400
C1021       C  0.26450855  0.14247228  0.01951090    -0.07800
C1022       C  0.27425889  0.13618518  0.05160019    -0.03900
C1023       C  0.26378888  0.11684195  0.06976453    -0.09200
C1024       C  0.24360097  0.10462720  0.05654627    -0.16900
H1025       H  0.14273877  0.05378581  0.92393159     0.11300
H1026       H  0.17702213  0.05522682  0.96387494     0.10600
H1027       H  0.16091242  0.12923007  0.98733815     0.10500
H1028       H  0.12702537  0.12808406  0.94741582     0.11000
H1029       H  0.23707923  0.13581842  0.98197733     0.11100
H1030       H  0.27203781  0.15722349  0.00473080     0.11100
H1031       H  0.27071131  0.11165603  0.09461008     0.11200
H1032       H  0.23539323  0.09021074  0.07127739     0.10000
C1033       C  0.92318929  0.68256857  0.59939633    -0.03800
C1034       C  0.92502412  0.70528652  0.58348877    -0.09600
C1035       C  0.94571389  0.71953889  0.58764713    -0.17200
C1036       C  0.96487739  0.71135007  0.60774280     0.24900
C1037       C  0.96302975  0.68900763  0.62417442    -0.18900
C1038       C  0.94236478  0.67474753  0.62012150    -0.07800
C1039       C  0.98673265  0.72545676  0.61055225    -0.14200
C1040       C  0.00519208  0.73708750  0.61160680    -0.14000
C1041       C  0.02711242  0.75122276  0.61064011     0.24800
C1042       C  0.04693582  0.74313491  0.59172080    -0.19400
C1043       C  0.06730474  0.75784908  0.58774511    -0.07800
C1044       C  0.06815094  0.78098804  0.60257540    -0.03900
C1045       C  0.04855938  0.78850347  0.62285724    -0.09200
C1046       C  0.02819770  0.77373520  0.62678771    -0.16900
H1047       H  0.91067559  0.71187445  0.56730464     0.11300
H1048       H  0.94691365  0.73678259  0.57473503     0.10600
H1049       H  0.97773229  0.68242117  0.63971958     0.10500
H1050       H  0.94166573  0.65734802  0.63263206     0.11000
H1051       H  0.04637457  0.72573089  0.57916073     0.11100
H1052       H  0.08204199  0.75139674  0.57207385     0.11100
H1053       H  0.04859084  0.80612884  0.63474868     0.11200
H1054       H  0.01301473  0.78019223  0.64158284     0.10000
C1055       C  0.63702569  0.59073142  0.42992289    -0.03800
C1056       C  0.64906905  0.56895929  0.43652479    -0.09600
C1057       C  0.66870580  0.56843256  0.45916132    -0.17200
C1058       C  0.67633524  0.58959874  0.47561862     0.24900
C1059       C  0.66401224  0.61109517  0.46979931    -0.18900
C1060       C  0.64459126  0.61169295  0.44718671    -0.07800
C1061       C  0.69769078  0.59022231  0.49665716    -0.14200
C1062       C  0.71593039  0.59482098  0.51224814    -0.14000
C1063       C  0.73757182  0.60484947  0.52708606     0.24800
C1064       C  0.75215218  0.61971340  0.50675981    -0.19400
C1065       C  0.77159061  0.63206194  0.52116418    -0.07800
C1066       C  0.77691856  0.62972299  0.55624121    -0.03900
C1067       C  0.76283807  0.61398301  0.57638986    -0.09200
C1068       C  0.74311990  0.60172899  0.56189456    -0.16900
H1069       H  0.64380562  0.55255947  0.42342470     0.11300
H1070       H  0.67821783  0.55170097  0.46321798     0.10600
H1071       H  0.66980017  0.62761895  0.48216816     0.10500
H1072       H  0.63578232  0.62875355  0.44273851     0.11000
H1073       H  0.74801010  0.62240985  0.47988969     0.11100
H1074       H  0.78211718  0.64399306  0.50496793     0.11100
H1075       H  0.76636871  0.61204582  0.60355212     0.11200
H1076       H  0.73183110  0.59044897  0.57799703     0.10000
C1077       C  0.84574189  0.72094809  0.49002845    -0.03800
C1078       C  0.82963880  0.73987851  0.48331367    -0.09600
C1079       C  0.83371011  0.75558151  0.45580290    -0.17200
C1080       C  0.85386524  0.75255137  0.43465231     0.24900
C1081       C  0.86991875  0.73378145  0.44110053    -0.18900
C1082       C  0.86591316  0.71808593  0.46853692    -0.07800
C1083       C  0.85808344  0.76840246  0.40601459    -0.14200
C1084       C  0.86245012  0.78084259  0.38139103    -0.14000
C1085       C  0.86857454  0.79489090  0.35153452     0.24800
C1086       C  0.88460568  0.81429966  0.35436236    -0.19400
C1087       C  0.89128477  0.82741770  0.32523546    -0.07800
C1088       C  0.88195093  0.82137798  0.29274570    -0.03900
C1089       C  0.86570735  0.80190093  0.29020253    -0.09200
C1090       C  0.85912229  0.78873309  0.31941824    -0.16900
H1091       H  0.81391527  0.74258526  0.49929623     0.11300
H1092       H  0.82113194  0.77002877  0.45099912     0.10600
H1093       H  0.88554338  0.73123377  0.42484060     0.10500
H1094       H  0.87863024  0.70369651  0.47286056     0.11000
H1095       H  0.89211469  0.81918156  0.37904827     0.11100
H1096       H  0.90382902  0.84227490  0.32820541     0.11100
H1097       H  0.85830670  0.79665788  0.26562349     0.11200
H1098       H  0.84680242  0.77363481  0.31691440     0.10000
C1099       C  0.00784047  0.58973549  0.29694145    -0.03800
C1100       C  0.99063642  0.57210504  0.30622758    -0.09600
C1101       C  0.97488269  0.57592438  0.33371035    -0.17200
C1102       C  0.97599153  0.59741391  0.35238675     0.24900
C1103       C  0.99310969  0.61499956  0.34356357    -0.18900
C1104       C  0.00894156  0.61121274  0.31607452    -0.07800
C1105       C  0.95957250  0.60145446  0.38053543    -0.14200
C1106       C  0.94611372  0.60512350  0.40433534    -0.14000
C1107       C  0.93075724  0.60984091  0.43345872     0.24800
C1108       C  0.91086362  0.62507309  0.43030435    -0.19400
C1109       C  0.89663152  0.63041134  0.45900924    -0.07800
C1110       C  0.90210226  0.62052837  0.49132165    -0.03900
C1111       C  0.92193335  0.60493943  0.49401886    -0.09200
C1112       C  0.93612950  0.59969279  0.46534821    -0.16900
H1113       H  0.98932056  0.55528331  0.29227875     0.11300
H1114       H  0.96180158  0.56212362  0.34032746     0.10600
H1115       H  0.99419324  0.63168395  0.35790515     0.10500
H1116       H  0.02197631  0.62511035  0.30977323     0.11000
H1117       H  0.90654021  0.63308424  0.40576164     0.11100
H1118       H  0.88159448  0.64254911  0.45598592     0.11100
H1119       H  0.92680424  0.59710359  0.51844639     0.11200
H1120       H  0.95150298  0.58794034  0.46817121     0.10000
C1121       C  0.85225217  0.59492817  0.68836481    -0.03800
C1122       C  0.87341481  0.58887714  0.70607410    -0.09600
C1123       C  0.87338491  0.57012607  0.72989035    -0.17200
C1124       C  0.85227038  0.55702854  0.73633907     0.24900
C1125       C  0.83078996  0.56368450  0.72020175    -0.18900
C1126       C  0.83072835  0.58268383  0.69648254    -0.07800
C1127       C  0.85378121  0.53515932  0.75609790    -0.14200
C1128       C  0.85894610  0.51618661  0.76918296    -0.14000
C1129       C  0.86961918  0.49397690  0.78050922     0.24800
C1130       C  0.86288310  0.48307681  0.81152463    -0.19400
C1131       C  0.87532994  0.46280749  0.82342982    -0.07800
C1132       C  0.89475454  0.45340600  0.80449579    -0.03900
C1133       C  0.90062424  0.46396994  0.77271747    -0.09200
C1134       C  0.88819893  0.48406381  0.76092521    -0.16900
H1135       H  0.89024302  0.59807276  0.70060804     0.11300
H1136       H  0.89013521  0.56511023  0.74209754     0.10600
H1137       H  0.81436512  0.55356719  0.72481404     0.10500
H1138       H  0.81419299  0.58690104  0.68316492     0.11000
H1139       H  0.84853428  0.49062300  0.82693082     0.11100
H1140       H  0.87039969  0.45513042  0.84800636     0.11100
H1141       H  0.91536865  0.45718335  0.75735111     0.11200
H1142       H  0.89359174  0.49232562  0.73690089     0.10000
C1143       C  0.42697187  0.68259788  0.92867068    -0.03800
C1144       C  0.42882005  0.70587279  0.94289383    -0.09600
C1145       C  0.44946584  0.71995670  0.93764470    -0.17200
C1146       C  0.46859568  0.71113756  0.91797917     0.24900
C1147       C  0.46658606  0.68840373  0.90260538    -0.18900
C1148       C  0.44592685  0.67422698  0.90786210    -0.07800
C1149       C  0.49067615  0.72493137  0.91529683    -0.14200
C1150       C  0.50903481  0.73675949  0.91540293    -0.14000
C1151       C  0.53047267  0.75152376  0.91813096     0.24800
C1152       C  0.55044825  0.74324869  0.93646438    -0.19400
C1153       C  0.57025708  0.75846169  0.94214219    -0.07800
C1154       C  0.57038506  0.78224017  0.92954493    -0.03900
C1155       C  0.55064429  0.79003221  0.90991367    -0.09200
C1156       C  0.53083020  0.77481841  0.90439439    -0.16900
H1157       H  0.41461632  0.71297561  0.95898611     0.11300
H1158       H  0.45074595  0.73751274  0.94967054     0.10600
H1159       H  0.48123537  0.68137350  0.88726677     0.10500
H1160       H  0.44510304  0.65647141  0.89641811     0.11000
H1161       H  0.55044012  0.72525410  0.94720690     0.11100
H1162       H  0.58518812  0.75179640  0.95714811     0.11100
H1163       H  0.55010876  0.80817909  0.89978971     0.11200
H1164       H  0.51550326  0.78147153  0.89019008     0.10000
C1165       C  0.64507129  0.74584005  0.04463056    -0.03800
C1166       C  0.66089948  0.72654498  0.05048638    -0.09600
C1167       C  0.65724036  0.71093319  0.07818031    -0.17200
C1168       C  0.63777789  0.71441082  0.10042581     0.24900
C1169       C  0.62198615  0.73356283  0.09492170    -0.18900
C1170       C  0.62556108  0.74916559  0.06722149    -0.07800
C1171       C  0.63383987  0.69836577  0.12887594    -0.14200
C1172       C  0.62949035  0.68557592  0.15310149    -0.14000
C1173       C  0.62295447  0.67134230  0.18252548     0.24800
C1174       C  0.60320791  0.65563198  0.18087046    -0.19400
C1175       C  0.59588927  0.64286869  0.21000074    -0.07800
C1176       C  0.60824471  0.64568908  0.24126107    -0.03900
C1177       C  0.62823169  0.66137289  0.24254445    -0.09200
C1178       C  0.63553479  0.67407784  0.21333807    -0.16900
H1179       H  0.67612309  0.72348777  0.03367852     0.11300
H1180       H  0.66958498  0.69617201  0.08223214     0.10600
H1181       H  0.60688984  0.73644242  0.11206155     0.10500
H1182       H  0.61313479  0.76390946  0.06365328     0.11000
H1183       H  0.59326953  0.65348174  0.15717340     0.11100
H1184       H  0.58040969  0.63099352  0.20808989     0.11100
H1185       H  0.63819402  0.66390980  0.26612245     0.11200
H1186       H  0.65079986  0.68626593  0.21490892     0.10000
C1187       C  0.71182261  0.84011959  0.98581441    -0.03800
C1188       C  0.72510115  0.85708319  0.96665602    -0.09600
C1189       C  0.74492926  0.86890193  0.98131939    -0.17200
C1190       C  0.75140413  0.86412867  0.01534620     0.24900
C1191       C  0.73721362  0.84856218  0.03519718    -0.18900
C1192       C  0.71757318  0.83663404  0.02057544    -0.07800
C1193       C  0.77384743  0.87292267  0.02910082    -0.14200
C1194       C  0.79303364  0.87708824  0.04236981    -0.14000
C1195       C  0.81551387  0.87856909  0.06064544     0.24800
C1196       C  0.83020873  0.85822780  0.06243412    -0.19400
C1197       C  0.85024850  0.85813336  0.08398799    -0.07800
C1198       C  0.85593199  0.87844055  0.10405388    -0.03900
C1199       C  0.84189820  0.89930865  0.10066773    -0.09200
C1200       C  0.82168234  0.89929826  0.07921962    -0.16900
H1201       H  0.72111360  0.86008297  0.93982479     0.11300
H1202       H  0.75581501  0.88088751  0.96569325     0.10600
H1203       H  0.74201139  0.84474613  0.06155969     0.10500
H1204       H  0.70753629  0.82385260  0.03607274     0.11000
H1205       H  0.82562705  0.84207180  0.04821404     0.11100
H1206       H  0.86080699  0.84184858  0.08585792     0.11100
H1207       H  0.84579214  0.91516135  0.11591126     0.11200
H1208       H  0.81037902  0.91511137  0.07813881     0.10000
C1209       C  0.78837774  0.69079723  0.68075070    -0.03800
C1210       C  0.76793855  0.70513633  0.67505533    -0.09600
C1211       C  0.75701103  0.71737721  0.70207956    -0.17200
C1212       C  0.76622295  0.71545626  0.73524717     0.24900
C1213       C  0.78599576  0.70056019  0.74156678    -0.18900
C1214       C  0.79704763  0.68826108  0.71444180    -0.07800
C1215       C  0.75570478  0.72953838  0.76225526    -0.14200
C1216       C  0.74609427  0.74202303  0.78344027    -0.14000
C1217       C  0.73370966  0.75654340  0.80826477     0.24800
C1218       C  0.74490746  0.76248289  0.83923760    -0.19400
C1219       C  0.73207580  0.77463218  0.86468621    -0.07800
C1220       C  0.70792707  0.78112126  0.85930175    -0.03900
C1221       C  0.69717786  0.77610907  0.82748128    -0.09200
C1222       C  0.70999288  0.76376498  0.80215730    -0.16900
H1223       H  0.76076275  0.70753421  0.64949150     0.11300
H1224       H  0.74167808  0.72879782  0.69694410     0.10600
H1225       H  0.79319765  0.69890390  0.76725203     0.10500
H1226       H  0.81275214  0.67740614  0.71966001     0.11000
H1227       H  0.76329319  0.75707050  0.84413013     0.11100
H1228       H  0.74081393  0.77832349  0.88894786     0.11100
H1229       H  0.67853975  0.78067199  0.82280095     0.11200
H1230       H  0.70118132  0.75923583  0.77822431     0.10000
C1231       C  0.44490343  0.80517848  0.35030760    -0.03800
C1232       C  0.46500802  0.80047297  0.32930252    -0.09600
C1233       C  0.47931653  0.78020585  0.33501405    -0.17200
C1234       C  0.47396028  0.76436561  0.36193980     0.24900
C1235       C  0.45449890  0.76930581  0.38372528    -0.18900
C1236       C  0.44003155  0.78952586  0.37792323    -0.07800
C1237       C  0.48776676  0.74252578  0.36583995    -0.14200
C1238       C  0.49948380  0.72422130  0.36632206    -0.14000
C1239       C  0.51387091  0.70265471  0.36377768     0.24800
C1240       C  0.50620799  0.68351534  0.34302455    -0.19400
C1241       C  0.52106579  0.66354312  0.33786885    -0.07800
C1242       C  0.54395218  0.66238279  0.35333003    -0.03900
C1243       C  0.55115415  0.68135948  0.37507287    -0.09200
C1244       C  0.53623821  0.70133456  0.38018158    -0.16900
H1245       H  0.46926764  0.81204012  0.30773646     0.11300
H1246       H  0.49427929  0.77660959  0.31791917     0.10600
H1247       H  0.45016712  0.75724644  0.40471584     0.10500
H1248       H  0.42480319  0.79267913  0.39468624     0.11000
H1249       H  0.48898648  0.68429763  0.33008268     0.11100
H1250       H  0.51487809  0.64933364  0.32095546     0.11100
H1251       H  0.56861607  0.68113197  0.38735190     0.11200
H1252       H  0.54243654  0.71603369  0.39623259     0.10000
C1253       C  0.35092411  0.09801385  0.18331841    -0.03800
C1254       C  0.32976208  0.08489145  0.19056564    -0.09600
C1255       C  0.33048430  0.06476386  0.21238265    -0.17200
C1256       C  0.35227473  0.05776687  0.22744165     0.24900
C1257       C  0.37297528  0.07173682  0.22206432    -0.18900
C1258       C  0.37232683  0.09166449  0.20026898    -0.07800
C1259       C  0.35438807  0.03516948  0.24559057    -0.14200
C1260       C  0.35951568  0.01600503  0.25832437    -0.14000
C1261       C  0.36953628  0.99363697  0.27063610     0.24800
C1262       C  0.38864296  0.98330393  0.25258371    -0.19400
C1263       C  0.40032567  0.96306710  0.26551946    -0.07800
C1264       C  0.39321411  0.95270752  0.29697251    -0.03900
C1265       C  0.37329198  0.96254627  0.31434256    -0.09200
C1266       C  0.36157142  0.98295054  0.30126576    -0.16900
H1267       H  0.31302610  0.08934058  0.17793138     0.11300
H1268       H  0.31431510  0.05411233  0.21633172     0.10600
H1269       H  0.38993709  0.06660838  0.23355759     0.10500
H1270       H  0.38890099  0.10151124  0.19557249     0.11000
H1271       H  0.39501537  0.99133165  0.22888412     0.11100
H1272       H  0.41548338  0.95599528  0.25128261     0.11100
H1273       H  0.36738984  0.95509409  0.33862729     0.11200
H1274       H  0.34679903  0.99077551  0.31552580     0.10000
C1275       C  0.58642568  0.84414775  0.04178052    -0.03800
C1276       C  0.59055195  0.83215938  0.07303494    -0.09600
C1277       C  0.57565855  0.83629245  0.10127641    -0.17200
C1278       C  0.55657544  0.85247571  0.09863907     0.24900
C1279       C  0.55260509  0.86483620  0.06796630    -0.18900
C1280       C  0.56744758  0.86074337  0.03968298    -0.07800
C1281       C  0.54101103  0.85650260  0.12735956    -0.14200
C1282       C  0.52778441  0.86063570  0.15102205    -0.14000
C1283       C  0.51203646  0.86645236  0.17889208     0.24800
C1284       C  0.49163889  0.85227898  0.18523388    -0.19400
C1285       C  0.47631894  0.85799905  0.21238725    -0.07800
C1286       C  0.48123409  0.87803520  0.23345577    -0.03900
C1287       C  0.50164451  0.89233515  0.22658039    -0.09200
C1288       C  0.51699699  0.88650035  0.19947334    -0.16900
H1289       H  0.60496646  0.81922738  0.07551155     0.11300
H1290       H  0.57887822  0.82671068  0.12502043     0.10600
H1291       H  0.53789120  0.87747229  0.06581608     0.10500
H1292       H  0.56377793  0.87025783  0.01604447     0.11000
H1293       H  0.48761129  0.83680009  0.16926592     0.11100
H1294       H  0.46064737  0.84672075  0.21687800     0.11100
H1295       H  0.50591178  0.90782119  0.24237272     0.11200
H1296       H  0.53275475  0.89758915  0.19459933     0.10000
C1297       C  0.38118551  0.82412828  0.23980827    -0.03800
C1298       C  0.39543646  0.82551596  0.20993910    -0.09600
C1299       C  0.38937540  0.81219236  0.18088621    -0.17200
C1300       C  0.36895650  0.79739690  0.18114283     0.24900
C1301       C  0.35433143  0.79622163  0.21038886    -0.18900
C1302       C  0.36041711  0.80949618  0.23964307    -0.07800
C1303       C  0.36375848  0.78267254  0.15182994    -0.14200
C1304       C  0.36054723  0.76986983  0.12736441    -0.14000
C1305       C  0.35727933  0.75415997  0.09853378     0.24800
C1306       C  0.33666192  0.75610981  0.07829346    -0.19400
C1307       C  0.33321658  0.74054241  0.05063001    -0.07800
C1308       C  0.35043121  0.72284865  0.04280675    -0.03900
C1309       C  0.37121721  0.72113938  0.06319223    -0.09200
C1310       C  0.37458280  0.73671946  0.09093544    -0.16900
H1311       H  0.41159279  0.83652258  0.20917716     0.11300
H1312       H  0.40084097  0.81314373  0.15839450     0.10600
H1313       H  0.33847096  0.78476841  0.21076110     0.10500
H1314       H  0.34903848  0.80812606  0.26215315     0.11000
H1315       H  0.32319852  0.76958786  0.08398160     0.11100
H1316       H  0.31706923  0.74239999  0.03536727     0.11100
H1317       H  0.38476685  0.70768514  0.05787917     0.11200
H1318       H  0.39061013  0.73509986  0.10653944     0.10000
C1319       C  0.21474474  0.83906882  0.55182850    -0.03800
C1320       C  0.22699677  0.85597126  0.57239994    -0.09600
C1321       C  0.24676252  0.86884631  0.55913789    -0.17200
C1322       C  0.25418352  0.86510370  0.52516519     0.24900
C1323       C  0.24147573  0.84900494  0.50433129    -0.18900
C1324       C  0.22197663  0.83609071  0.51749414    -0.07800
C1325       C  0.27600785  0.87566381  0.51187062    -0.14200
C1326       C  0.29453170  0.88011861  0.49692915    -0.14000
C1327       C  0.31587550  0.88011104  0.47594340     0.24800
C1328       C  0.32645448  0.85803437  0.46784604    -0.19400
C1329       C  0.34574633  0.85706406  0.44497274    -0.07800
C1330       C  0.35481988  0.87822921  0.42974575    -0.03900
C1331       C  0.34451598  0.90048015  0.43865942    -0.09200
C1332       C  0.32505734  0.90139405  0.46158052    -0.16900
H1333       H  0.22201496  0.85840367  0.59903887     0.11300
H1334       H  0.25666029  0.88108413  0.57560963     0.10600
H1335       H  0.24715803  0.84580499  0.47811640     0.10500
H1336       H  0.21294698  0.82322940  0.50097285     0.11000
H1337       H  0.31937486  0.84143105  0.47858589     0.11100
H1338       H  0.35319062  0.83962921  0.43864938     0.11100
H1339       H  0.35101218  0.91705090  0.42717857     0.11200
H1340       H  0.31685539  0.91856498  0.46744183     0.10000
C1341       C  0.44058852  0.30239777  0.68091832    -0.03800
C1342       C  0.42978540  0.28115023  0.66837595    -0.09600
C1343       C  0.44344168  0.26023315  0.66384962    -0.17200
C1344       C  0.46807424  0.26032734  0.67153083     0.24900
C1345       C  0.47909187  0.28159075  0.68290337    -0.18900
C1346       C  0.46549634  0.30244158  0.68760566    -0.07800
C1347       C  0.48188812  0.23842308  0.66979337    -0.14200
C1348       C  0.49407937  0.22048776  0.67080764    -0.14000
C1349       C  0.50913583  0.19955362  0.67456817     0.24800
C1350       C  0.52975609  0.19680928  0.65422276    -0.19400
C1351       C  0.54509210  0.17718820  0.65934749    -0.07800
C1352       C  0.53999764  0.16000098  0.68494814    -0.03900
C1353       C  0.51898388  0.16275396  0.70487164    -0.09200
C1354       C  0.50374436  0.18238609  0.69974890    -0.16900
H1355       H  0.41066147  0.28046402  0.66309493     0.11300
H1356       H  0.43468083  0.24386704  0.65511967     0.10600
H1357       H  0.49812407  0.28191016  0.68894627     0.10500
H1358       H  0.47443532  0.31847889  0.69714192     0.11000
H1359       H  0.53418449  0.21003147  0.63474205     0.11100
H1360       H  0.56109168  0.17567269  0.64359739     0.11100
H1361       H  0.51451020  0.14998115  0.72491978     0.11200
H1362       H  0.48792733  0.18435760  0.71580312     0.10000
C1363       C  0.39935332  0.11975738  0.98899921    -0.03800
C1364       C  0.41851826  0.10342884  0.99226005    -0.09600
C1365       C  0.43154807  0.09614365  0.96346724    -0.17200
C1366       C  0.42557396  0.10498025  0.93104343     0.24900
C1367       C  0.40607416  0.12059153  0.92730316    -0.18900
C1368       C  0.39301749  0.12796716  0.95609874    -0.07800
C1369       C  0.44045433  0.09929541  0.90204146    -0.14200
C1370       C  0.45383310  0.09556241  0.87833325    -0.14000
C1371       C  0.47033794  0.09174988  0.85049278     0.24800
C1372       C  0.48808108  0.10899884  0.84309433    -0.19400
C1373       C  0.50422601  0.10525574  0.81608104    -0.07800
C1374       C  0.50275959  0.08417370  0.79610952    -0.03900
C1375       C  0.48483204  0.06696043  0.80385620    -0.09200
C1376       C  0.46875528  0.07074415  0.83086870    -0.16900
H1377       H  0.42385537  0.09669348  0.01715230     0.11300
H1378       H  0.44664342  0.08407330  0.96661191     0.10600
H1379       H  0.40133631  0.12752387  0.90225229     0.10500
H1380       H  0.37830587  0.14044272  0.95265643     0.11000
H1381       H  0.48943972  0.12532881  0.85820924     0.11100
H1382       H  0.51778591  0.11886617  0.81081707     0.11100
H1383       H  0.48319955  0.05052592  0.78906603     0.11200
H1384       H  0.45509775  0.05728013  0.83644465     0.10000
C1385       C  0.59432521  0.01578318  0.73131676    -0.03800
C1386       C  0.58882390  0.00615421  0.76380984    -0.09600
C1387       C  0.60226936  0.98727337  0.77733599    -0.17200
C1388       C  0.62151023  0.97760763  0.75880177     0.24900
C1389       C  0.62770140  0.98749617  0.72686115    -0.18900
C1390       C  0.61425026  0.00657756  0.71323824    -0.07800
C1391       C  0.63339160  0.95655838  0.77222891    -0.14200
C1392       C  0.63912537  0.93827204  0.78683861    -0.14000
C1393       C  0.64028720  0.91659427  0.80723404     0.24800
C1394       C  0.66199360  0.90820767  0.82105092    -0.19400
C1395       C  0.66195624  0.88828912  0.84336218    -0.07800
C1396       C  0.64016102  0.87671282  0.85219423    -0.03900
C1397       C  0.61865245  0.88504137  0.83742998    -0.09200
C1398       C  0.61875086  0.90471772  0.81523537    -0.16900
H1399       H  0.57371833  0.01282302  0.77855270     0.11300
H1400       H  0.59722755  0.97976612  0.80200217     0.10600
H1401       H  0.64249225  0.98011276  0.71216204     0.10500
H1402       H  0.61892728  0.01354712  0.68814072     0.11000
H1403       H  0.67879291  0.91735779  0.81525874     0.11100
H1404       H  0.67878559  0.88244602  0.85448383     0.11100
H1405       H  0.60152605  0.87666415  0.84358907     0.11200
H1406       H  0.60182440  0.91107053  0.80494379     0.10000
C1407       C  0.45005797  0.94527392  0.42067098    -0.03800
C1408       C  0.46482638  0.96551668  0.41435957    -0.09600
C1409       C  0.47533550  0.97813639  0.44144219    -0.17200
C1410       C  0.47116590  0.97084798  0.47522308     0.24900
C1411       C  0.45557844  0.95148621  0.48196141    -0.18900
C1412       C  0.44500582  0.93877163  0.45482599    -0.07800
C1413       C  0.48400338  0.98245900  0.50263656    -0.14200
C1414       C  0.49561030  0.99188312  0.52503239    -0.14000
C1415       C  0.50927914  0.00279896  0.55220940     0.24800
C1416       C  0.50832876  0.99288010  0.58511020    -0.19400
C1417       C  0.52034776  0.00414816  0.61214500    -0.07800
C1418       C  0.53350382  0.02557435  0.60664883    -0.03900
C1419       C  0.53506225  0.03497263  0.57321013    -0.09200
C1420       C  0.52296885  0.02363629  0.54614595    -0.16900
H1421       H  0.46899198  0.97114818  0.38841827     0.11300
H1422       H  0.48729393  0.99314984  0.43596796     0.10600
H1423       H  0.45218097  0.94577131  0.50810288     0.10500
H1424       H  0.43367705  0.92334270  0.46055092     0.11000
H1425       H  0.49786305  0.97670732  0.59003138     0.11100
H1426       H  0.51876088  0.99640528  0.63754419     0.11100
H1427       H  0.54494364  0.05147190  0.56817162     0.11200
H1428       H  0.52386374  0.03140398  0.52068427     0.10000
C1429       C  0.63865395  0.23815311  0.99331060    -0.03800
C1430       C  0.65443044  0.21913425  0.98573966    -0.09600
C1431       C  0.64951748  0.20347936  0.95852263    -0.17200
C1432       C  0.62886259  0.20671255  0.93860650     0.24900
C1433       C  0.61294452  0.22537756  0.94619581    -0.18900
C1434       C  0.61774351  0.24096621  0.97341156    -0.07800
C1435       C  0.62423745  0.19139253  0.90971408    -0.14200
C1436       C  0.62000363  0.17942135  0.88470854    -0.14000
C1437       C  0.61457676  0.16589556  0.85431603     0.24800
C1438       C  0.59806494  0.14684026  0.85577159    -0.19400
C1439       C  0.59233341  0.13403286  0.82606675    -0.07800
C1440       C  0.60303253  0.14017367  0.79442352    -0.03900
C1441       C  0.61973064  0.15931039  0.79329999    -0.09200
C1442       C  0.62544208  0.17208855  0.82310723    -0.16900
H1443       H  0.67061407  0.21645386  0.00066250     0.11300
H1444       H  0.66194032  0.18904927  0.95277812     0.10600
H1445       H  0.59694712  0.22804935  0.93083148     0.10500
H1446       H  0.60527746  0.25547862  0.97845285     0.11000
H1447       H  0.58949131  0.14198779  0.87980883     0.11100
H1448       H  0.57931463  0.11948765  0.82787802     0.11100
H1449       H  0.62822558  0.16454533  0.76939561     0.11200
H1450       H  0.63819893  0.18690097  0.82177246     0.10000
C1451       C  0.77429219  0.13003145  0.48418138    -0.03800
C1452       C  0.76434066  0.13542370  0.51651258    -0.09600
C1453       C  0.74467562  0.12245324  0.52920999    -0.17200
C1454       C  0.73446108  0.10376085  0.51002904     0.24900
C1455       C  0.74481085  0.09740879  0.47843811    -0.18900
C1456       C  0.76470589  0.11041927  0.46561174    -0.07800
C1457       C  0.71228796  0.09294682  0.52222966    -0.14200
C1458       C  0.69323402  0.08808705  0.53574475    -0.14000
C1459       C  0.67096051  0.08701386  0.55500820     0.24800
C1460       C  0.65618746  0.10736449  0.55608956    -0.19400
C1461       C  0.63663938  0.10830100  0.57873033    -0.07800
C1462       C  0.63135001  0.08873954  0.60041293    -0.03900
C1463       C  0.64544197  0.06781607  0.59790996    -0.09200
C1464       C  0.66527266  0.06704899  0.57556071    -0.16900
H1465       H  0.77127156  0.15024198  0.53169696     0.11300
H1466       H  0.73689332  0.12759296  0.55363560     0.10600
H1467       H  0.73706986  0.08298155  0.46326718     0.10500
H1468       H  0.77191283  0.10578746  0.44065489     0.11000
H1469       H  0.66039897  0.12297105  0.54045846     0.11100
H1470       H  0.62605345  0.12459927  0.57997935     0.11100
H1471       H  0.64190243  0.05256209  0.61452102     0.11200
H1472       H  0.67664591  0.05126765  0.57526310     0.10000
loop_ 
_geom_bond_atom_site_label_1 
_geom_bond_atom_site_label_2 
_geom_bond_distance 
_geom_bond_site_symmetry_2 
_ccdc_geom_bond_type 
O1           Ni7   1.941       .  S
O1           C22   1.275       .  A
O2          Ni25   1.901       .  S
O2           C11   1.266       .  A
O3           Ni7   1.918       .  S
O3          Ni25   1.899       .  S
O3          Ni19   1.897       .  S
O3           H26   0.966       .  S
C4           O21   1.267       .  A
C4           O13   1.269       .  A
C4         C1418   1.480       .  S
O5          Ni24   1.919       .  S
O5           C11   1.269       .  A
O6          Ni24   1.899       .  S
O6            C8   1.272       .  A
Ni7          O10   1.941       .  S
Ni7          O12   1.914       .  S
C8           O18   1.282       .  A
C8         C1385   1.486       .  S
O9          Ni25   1.894       .  S
O9           C15   1.270       .  A
O10          C15   1.279       .  A
C11        C1374   1.481       .  S
O12          C14   1.270       .  A
O13         Ni24   1.927       .  S
C14          O20   1.271       .  A
C14        C1352   1.487       .  S
C15        C1440   1.480       .  S
H16          O17   0.967       .  S
O17         Ni25   1.925       .  S
O17         Ni19   1.917       .  S
O17         Ni24   1.920       .  S
O18         Ni19   1.960       .  S
Ni19         O23   1.910       .  S
Ni19         O21   1.908       .  S
O20         Ni25   1.927       .  S
C22          O23   1.269       .  A
C22        C1462   1.483       .  S
O27         Ni33   1.928       .  S
O27          C48   1.270       .  A
O28         Ni51   1.911       .  S
O28          C37   1.270       .  A
O29         Ni33   1.919       .  S
O29         Ni51   1.920       .  S
O29         Ni45   1.925       .  S
O29          H52   0.967       .  S
C30          O47   1.272       .  A
C30          O39   1.279       .  A
C30        C1297   1.479       .  S
O31         Ni50   1.926       .  S
O31          C37   1.272       .  A
O32         Ni50   1.916       .  S
O32          C34   1.268       .  A
Ni33         O36   1.926       .  S
Ni33         O38   1.897       .  S
C34          O44   1.269       .  A
C34        C1231   1.489       .  S
O35         Ni51   1.906       .  S
O35          C41   1.268       .  A
O36          C41   1.271       .  A
C37        C1330   1.480       .  S
O38          C40   1.271       .  A
O39         Ni50   1.935       .  S
C40          O46   1.283       .  A
C40        C1264   1.489       .  S
C41        C1407   1.481       .  S
H42          O43   0.967       .  S
O43         Ni51   1.899       .  S
O43         Ni45   1.888       .  S
O43         Ni50   1.915       .  S
O44         Ni45   1.925       .  S
Ni45         O49   1.883       .  S
Ni45         O47   1.898       .  S
O46         Ni51   1.963       .  S
C48          O49   1.261       .  A
C48        C1286   1.475       .  S
O53         Ni59   1.926       .  S
O53          C74   1.271       .  A
O54         Ni77   1.902   1_554  S
O54          C63   1.266       .  A
O55         Ni59   1.911       .  S
O55         Ni77   1.899       .  S
O55         Ni71   1.896       .  S
O55          H78   0.966       .  S
C56          O73   1.267       .  A
C56          O65   1.269       .  A
C56        C1220   1.475       .  S
O57         Ni76   1.923       .  S
O57          C63   1.270   1_556  A
O58         Ni76   1.898       .  S
O58          C60   1.271       .  A
Ni59         O62   1.929       .  S
Ni59         O64   1.908       .  S
C60          O70   1.282       .  A
C60        C1187   1.479       .  S
O61         Ni77   1.898   1_554  S
O61          C67   1.271       .  A
O62          C67   1.277   1_556  A
C63        C1165   1.484       .  S
O64          C66   1.268       .  A
O65         Ni76   1.931       .  S
C66          O72   1.272       .  A
C66        C1154   1.488       .  S
C67        C1275   1.477       .  S
H68          O69   0.967       .  S
O69         Ni77   1.925       .  S
O69         Ni71   1.920       .  S
O69         Ni76   1.917       .  S
O70         Ni71   1.959       .  S
Ni71         O75   1.923       .  S
Ni71         O73   1.906       .  S
O72         Ni77   1.931       .  S
C74          O75   1.271       .  A
C74        C1396   1.487       .  S
O79         Ni85   1.923       .  S
O79         C100   1.271       .  A
O80        Ni103   1.913       .  S
O80          C89   1.269       .  A
O81         Ni85   1.918       .  S
O81        Ni103   1.916       .  S
O81         Ni97   1.929       .  S
O81         H104   0.966       .  S
C82          O99   1.274       .  A
C82          O91   1.277       .  A
C82        C1110   1.487       .  S
O83        Ni102   1.932       .  S
O83          C89   1.272       .  A
O84        Ni102   1.906       .  S
O84          C86   1.268       .  A
Ni85         O88   1.928       .  S
Ni85         O90   1.896       .  S
C86          O96   1.272       .  A
C86        C1033   1.487       .  S
O87        Ni103   1.911       .  S
O87          C93   1.267       .  A
O88          C93   1.269       .  A
C89        C1121   1.481       .  S
O90          C92   1.272       .  A
O91        Ni102   1.932       .  S
C92          O98   1.283       .  A
C92        C1066   1.482       .  S
C93        C1209   1.481       .  S
H94          O95   0.967       .  S
O95        Ni103   1.902       .  S
O95         Ni97   1.902       .  S
O95        Ni102   1.914       .  S
O96         Ni97   1.932       .  S
Ni97        O101   1.899       .  S
Ni97         O99   1.913       .  S
O98        Ni103   1.965       .  S
C100        O101   1.267       .  A
C100       C1077   1.482       .  S
O105       Ni111   1.938       .  S
O105        C126   1.274       .  A
O106       Ni129   1.915       .  S
O106        C115   1.270       .  A
O107       Ni111   1.911       .  S
O107       Ni129   1.913       .  S
O107       Ni123   1.916       .  S
O107        H130   0.966       .  S
C108        O125   1.276       .  A
C108        O117   1.279       .  A
C108        C989   1.482       .  S
O109       Ni128   1.931       .  S
O109        C115   1.273       .  A
O110       Ni128   1.919       .  S
O110        C112   1.270       .  A
Ni111       O114   1.940       .  S
Ni111       O116   1.900       .  S
C112        O122   1.267       .  A
C112        C912   1.482       .  S
O113       Ni129   1.905       .  S
O113        C119   1.271       .  A
O114        C119   1.276       .  A
C115       C1011   1.482       .  S
O116        C118   1.270       .  A
O117       Ni128   1.926       .  S
C118        O124   1.279       .  A
C118        C945   1.483       .  S
C119        C978   1.483       .  S
H120        O121   0.967       .  S
O121       Ni129   1.905       .  S
O121       Ni123   1.893       .  S
O121       Ni128   1.912       .  S
O122       Ni123   1.913       .  S
Ni123       O127   1.891       .  S
Ni123       O125   1.914       .  S
O124       Ni129   1.955       .  S
C126        O127   1.264       .  A
C126        C923   1.481       .  S
O131       Ni137   1.930       .  S
O131        C152   1.272       .  A
O132       Ni155   1.885       .  S
O132        C141   1.261       .  A
O133       Ni137   1.921       .  S
O133       Ni155   1.892       .  S
O133       Ni149   1.907       .  S
O133        H156   0.967       .  S
C134        O151   1.272       .  A
C134        O143   1.273       .  A
C134        C967   1.481       .  S
O135       Ni154   1.928       .  S
O135        C141   1.271       .  A
O136       Ni154   1.898       .  S
O136        C138   1.269       .  A
Ni137       O140   1.939       .  S
Ni137       O142   1.916       .  S
C138        O148   1.280       .  A
C138        C868   1.486       .  S
O139       Ni155   1.906       .  S
O139        C145   1.274       .  A
O140        C145   1.280       .  A
C141        C890   1.475       .  S
O142        C144   1.268       .  A
O143       Ni154   1.925       .  S
C144        O150   1.267       .  A
C144        C835   1.486       .  S
C145       C1088   1.485       .  S
H146        O147   0.967       .  S
O147       Ni155   1.919       .  S
O147       Ni149   1.917       .  S
O147       Ni154   1.919       .  S
O148       Ni149   1.955       .  S
Ni149       O153   1.912       .  S
Ni149       O151   1.912       .  S
O150       Ni155   1.914       .  S
C152        O153   1.270       .  A
C152       C1198   1.480       .  S
O157       Ni163   1.923       .  S
O157        C178   1.269       .  A
O158       Ni181   1.918       .  S
O158        C167   1.271       .  A
O159       Ni163   1.916       .  S
O159       Ni181   1.920       .  S
O159       Ni175   1.919       .  S
O159        H182   0.966       .  S
C160        O177   1.272       .  A
C160        O169   1.278       .  A
C160        C879   1.479       .  S
O161       Ni180   1.926       .  S
O161        C167   1.271       .  A
O162       Ni180   1.912       .  S
O162        C164   1.268       .  A
Ni163       O166   1.924       .  S
Ni163       O168   1.892       .  S
C164        O174   1.270       .  A
C164       C1044   1.488       .  S
O165       Ni181   1.910       .  S
O165        C171   1.271       .  A
O166        C171   1.272       .  A
C167        C956   1.482       .  S
O168        C170   1.268       .  A
O169       Ni180   1.932       .  S
C170        O176   1.279       .  A
C170       C1319   1.480       .  S
C171        C813   1.480       .  S
H172        O173   0.967       .  S
O173       Ni181   1.906       .  S
O173       Ni175   1.894       .  S
O173       Ni180   1.917       .  S
O174       Ni175   1.924       .  S
Ni175       O179   1.887       .  S
Ni175       O177   1.901       .  S
O176       Ni181   1.955       .  S
C178        O179   1.261       .  A
C178        C791   1.473       .  S
O183       Ni189   1.933       .  S
O183        C204   1.274       .  A
O184       Ni207   1.896   1_554  S
O184        C193   1.263       .  A
O185       Ni189   1.917       .  S
O185       Ni207   1.899       .  S
O185       Ni201   1.908       .  S
O185        H208   0.967       .  S
C186        O203   1.272       .  A
C186        O195   1.270       .  A
C186        C824   1.483       .  S
O187       Ni206   1.920       .  S
O187        C193   1.268   1_556  A
O188       Ni206   1.893       .  S
O188        C190   1.269       .  A
Ni189       O192   1.938       .  S
Ni189       O194   1.914       .  S
C190        O200   1.282       .  A
C190        C725   1.488       .  S
O191       Ni207   1.904   1_554  S
O191        C197   1.272       .  A
O192        C197   1.279   1_556  A
C193       C1308   1.477       .  S
O194        C196   1.269       .  A
O195       Ni206   1.915       .  S
C196        O202   1.269       .  A
C196       C1143   1.488       .  S
C197        C747   1.485       .  S
H198        O199   0.966       .  S
O199       Ni207   1.920       .  S
O199       Ni201   1.923       .  S
O199       Ni206   1.917       .  S
O200       Ni201   1.959       .  S
Ni201       O205   1.920       .  S
Ni201       O203   1.920       .  S
O202       Ni207   1.921       .  S
C204        O205   1.272       .  A
C204        C769   1.488       .  S
O209       Ni215   1.925       .  S
O209        C230   1.270       .  A
O210       Ni233   1.897       .  S
O210        C219   1.266       .  A
O211       Ni215   1.914       .  S
O211       Ni233   1.898       .  S
O211       Ni227   1.899       .  S
O211        H234   0.967       .  S
C212        O229   1.267       .  A
C212        O221   1.273       .  A
C212        C659   1.475       .  S
O213       Ni232   1.931       .  S
O213        C219   1.272       .  A
O214       Ni232   1.898       .  S
O214        C216   1.270       .  A
Ni215       O218   1.923       .  S
Ni215       O220   1.913       .  S
C216        O226   1.279       .  A
C216        C648   1.478       .  S
O217       Ni233   1.913       .  S
O217        C223   1.276       .  A
O218        C223   1.278       .  A
C219       C1000   1.483       .  S
O220        C222   1.269       .  A
O221       Ni232   1.934       .  S
C222        O228   1.269       .  A
C222        C615   1.488       .  S
C223        C681   1.481       .  S
H224        O225   0.966       .  S
O225       Ni233   1.924       .  S
O225       Ni227   1.921       .  S
O225       Ni232   1.919       .  S
O226       Ni227   1.953       .  S
Ni227       O231   1.920       .  S
Ni227       O229   1.896       .  S
O228       Ni233   1.923       .  S
C230        O231   1.269       .  A
C230        C714   1.486       .  S
O235       Ni241   1.921       .  S
O235        C256   1.270       .  A
O236       Ni259   1.920       .  S
O236        C245   1.271       .  A
O237       Ni241   1.915       .  S
O237       Ni259   1.919       .  S
O237       Ni253   1.933       .  S
O237        H260   0.966       .  S
C238        O255   1.275       .  A
C238        O247   1.278       .  A
C238       C1363   1.480   1_554  S
O239       Ni258   1.928       .  S
O239        C245   1.271       .  A
O240       Ni258   1.909       .  S
O240        C242   1.267       .  A
Ni241       O244   1.927       .  S
Ni241       O246   1.897       .  S
C242        O252   1.269       .  A
C242        C582   1.484       .  S
O243       Ni259   1.902       .  S
O243        C249   1.265       .  A
O244        C249   1.269       .  A
C245       C1253   1.485       .  S
O246        C248   1.273       .  A
O247       Ni258   1.928       .  S
C248        O254   1.286       .  A
C248       C1022   1.489       .  S
C249        C670   1.475       .  S
H250        O251   0.967       .  S
O251       Ni259   1.892       .  S
O251       Ni253   1.895       .  S
O251       Ni258   1.911       .  S
O252       Ni253   1.925       .  S
Ni253       O257   1.899       .  S
Ni253       O255   1.908       .  S
O254       Ni259   1.969       .  S
C256        O257   1.265       .  A
C256        C604   1.481   1_554  S
O261       Ni267   1.923       .  S
O261        C282   1.271       .  A
O262       Ni285   1.916       .  S
O262        C271   1.270       .  A
O263       Ni267   1.916       .  S
O263       Ni285   1.917       .  S
O263       Ni279   1.925       .  S
O263        H286   0.966       .  S
C264        O281   1.274       .  A
C264        O273   1.279       .  A
C264       C1176   1.482       .  S
O265       Ni284   1.930       .  S
O265        C271   1.273       .  A
O266       Ni284   1.916       .  S
O266        C268   1.269       .  A
Ni267       O270   1.930       .  S
Ni267       O272   1.903       .  S
C268        O278   1.270       .  A
C268       C1242   1.490       .  S
O269       Ni285   1.908       .  S
O269        C275   1.268       .  A
O270        C275   1.270       .  A
C271       C1055   1.485       .  S
O272        C274   1.272       .  A
O273       Ni284   1.932       .  S
C274        O280   1.283       .  A
C274        C538   1.481       .  S
C275        C560   1.479       .  S
H276        O277   0.967       .  S
O277       Ni285   1.898       .  S
O277       Ni279   1.898       .  S
O277       Ni284   1.914       .  S
O278       Ni279   1.925       .  S
Ni279       O283   1.899       .  S
Ni279       O281   1.905       .  S
O280       Ni285   1.964       .  S
C282        O283   1.266       .  A
C282        C758   1.482       .  S
O287       Ni293   1.923       .  S
O287        C308   1.270       .  A
O288       Ni311   1.899       .  S
O288        C297   1.266       .  A
O289       Ni293   1.913       .  S
O289       Ni311   1.897       .  S
O289       Ni305   1.902       .  S
O289        H312   0.967       .  S
C290        O307   1.269       .  A
C290        O299   1.273       .  A
C290        C549   1.481       .  S
O291       Ni310   1.932       .  S
O291        C297   1.273       .  A
O292       Ni310   1.903       .  S
O292        C294   1.271       .  A
Ni293       O296   1.921       .  S
Ni293       O298   1.913       .  S
C294        O304   1.280       .  A
C294        C780   1.487       .  S
O295       Ni311   1.914       .  S
O295        C301   1.276       .  A
O296        C301   1.277       .  A
C297        C505   1.484       .  S
O298        C300   1.268       .  A
O299       Ni310   1.929       .  S
C300        O306   1.268       .  A
C300       C1341   1.485       .  S
C301        C593   1.480       .  S
H302        O303   0.966       .  S
O303       Ni311   1.920       .  S
O303       Ni305   1.919       .  S
O303       Ni310   1.914       .  S
O304       Ni305   1.956       .  S
Ni305       O309   1.920       .  S
Ni305       O307   1.906       .  S
O306       Ni311   1.918       .  S
C308        O309   1.270       .  A
C308        C637   1.482       .  S
O313       Ni319   1.927       .  S
O313        C334   1.271       .  A
O314       Ni337   1.896       .  S
O314        C323   1.266       .  A
O315       Ni319   1.912       .  S
O315       Ni337   1.897       .  S
O315       Ni331   1.904       .  S
O315        H338   0.966       .  S
C316        O333   1.270       .  A
C316        O325   1.274       .  A
C316        C483   1.480       .  S
O317       Ni336   1.929       .  S
O317        C323   1.272       .  A
O318       Ni336   1.900       .  S
O318        C320   1.270       .  A
Ni319       O322   1.927       .  S
Ni319       O324   1.914       .  S
C320        O330   1.279       .  A
C320       C1451   1.489       .  S
O321       Ni337   1.910       .  S
O321        C327   1.275       .  A
O322        C327   1.278       .  A
C323        C461   1.478       .  S
O324        C326   1.269       .  A
O325       Ni336   1.931       .  S
C326        O332   1.271       .  A
C326        C626   1.489       .  S
C327        C934   1.481       .  S
H328        O329   0.974       .  S
O329       Ni337   1.916       .  S
O329       Ni331   1.915       .  S
O329       Ni336   1.913       .  S
O330       Ni331   1.959       .  S
Ni331       O335   1.916       .  S
Ni331       O333   1.903       .  S
O332       Ni337   1.924       .  S
C334        O335   1.269       .  A
C334        C857   1.480       .  S
O339       Ni345   1.934       .  S
O339        C360   1.274       .  A
O340       Ni363   1.923       .  S
O340        C349   1.272       .  A
O341       Ni345   1.910       .  S
O341       Ni363   1.913       .  S
O341       Ni357   1.919       .  S
O341        H364   0.967       .  S
C342        O359   1.278       .  A
C342        O351   1.278       .  A
C342        C516   1.484   1_554  S
O343       Ni362   1.918       .  S
O343        C349   1.270       .  A
O344       Ni362   1.915       .  S
O344        C346   1.268       .  A
Ni345       O348   1.934       .  S
Ni345       O350   1.901       .  S
C346        O356   1.268       .  A
C346        C571   1.484       .  S
O347       Ni363   1.909       .  S
O347        C353   1.272       .  A
O348        C353   1.274       .  A
C349        C527   1.483       .  S
O350        C352   1.271       .  A
O351       Ni362   1.922       .  S
C352        O358   1.280       .  A
C352        C439   1.484       .  S
C353        C494   1.481       .  S
H354        O355   0.966       .  S
O355       Ni363   1.908       .  S
O355       Ni357   1.887       .  S
O355       Ni362   1.904       .  S
O356       Ni357   1.917       .  S
Ni357       O361   1.887       .  S
Ni357       O359   1.923       .  S
O358       Ni363   1.954       .  S
C360        O361   1.264       .  A
C360       C1429   1.478   1_554  S
O365       Ni371   1.928       .  S
O365        C386   1.271       .  A
O366       Ni389   1.914       .  S
O366        C375   1.270       .  A
O367       Ni371   1.912       .  S
O367       Ni389   1.901       .  S
O367       Ni383   1.893       .  S
O367        H390   0.967       .  S
C368        O385   1.265       .  A
C368        O377   1.270       .  A
C368        C428   1.476       .  S
O369       Ni388   1.920       .  S
O369        C375   1.270       .  A
O370       Ni388   1.896       .  S
O370        C372   1.271       .  A
Ni371       O374   1.922       .  S
Ni371       O376   1.909       .  S
C372        O382   1.285       .  A
C372        C703   1.488       .  S
O373       Ni389   1.904       .  S
O373        C379   1.275       .  A
O374        C379   1.277       .  A
C375       C1099   1.488       .  S
O376        C378   1.268       .  A
O377       Ni388   1.930       .  S
C378        O384   1.271       .  A
C378        C846   1.484       .  S
C379        C802   1.474       .  S
H380        O381   0.966       .  S
O381       Ni389   1.928       .  S
O381       Ni383   1.919       .  S
O381       Ni388   1.916       .  S
O382       Ni383   1.967       .  S
Ni383       O387   1.921       .  S
Ni383       O385   1.902       .  S
O384       Ni389   1.923       .  S
C386        O387   1.270       .  A
C386        C736   1.485       .  S
O391       Ni397   1.926       .  S
O391        C412   1.270       .  A
O392       Ni415   1.916       .  S
O392        C401   1.269       .  A
O393       Ni397   1.920       .  S
O393       Ni415   1.922       .  S
O393       Ni409   1.927       .  S
O393        H416   0.967       .  S
C394        O411   1.274       .  A
C394        O403   1.278       .  A
C394        C472   1.480       .  S
O395       Ni414   1.926       .  S
O395        C401   1.270       .  A
O396       Ni414   1.908       .  S
O396        C398   1.268       .  A
Ni397       O400   1.930       .  S
Ni397       O402   1.896       .  S
C398        O408   1.271       .  A
C398        C901   1.486       .  S
O399       Ni415   1.906       .  S
O399        C405   1.267       .  A
O400        C405   1.271       .  A
C401        C450   1.480       .  S
O402        C404   1.270       .  A
O403       Ni414   1.927       .  S
C404        O410   1.281       .  A
C404       C1132   1.484       .  S
C405        C417   1.481       .  S
H406        O407   0.967       .  S
O407       Ni415   1.897       .  S
O407       Ni409   1.895       .  S
O407       Ni414   1.914       .  S
O408       Ni409   1.928       .  S
Ni409       O413   1.895       .  S
Ni409       O411   1.906       .  S
O410       Ni415   1.957       .  S
C412        O413   1.265       .  A
C412        C692   1.481       .  S
C417        C418   1.408       .  A
C417        C422   1.408       .  A
C418        C419   1.394       .  A
C418        H431   1.083       .  S
C419        C420   1.396       .  A
C419        H432   1.084       .  S
C420        C421   1.401       .  A
C420        C423   1.437   1_556  S
C421        C422   1.401       .  A
C421        H433   1.083   1_556  S
C422        H434   1.083       .  S
C423        C424   1.204   1_655  T
C424        C425   1.437       .  S
C425        C426   1.398       .  A
C425        C430   1.401       .  A
C426        C427   1.395       .  A
C426        H435   1.084       .  S
C427        C428   1.407       .  A
C427        H436   1.083       .  S
C428        C429   1.406       .  A
C429        C430   1.399       .  A
C429        H437   1.083       .  S
C430        H438   1.084       .  S
C439        C440   1.408       .  A
C439        C444   1.408       .  A
C440        C441   1.403       .  A
C440        H453   1.083       .  S
C441        C442   1.401       .  A
C441        H454   1.083       .  S
C442        C443   1.399       .  A
C442        C445   1.442       .  S
C443        C444   1.396       .  A
C443        H455   1.084   1_554  S
C444        H456   1.083       .  S
C445        C446   1.207   1_554  T
C446        C447   1.442       .  S
C447        C448   1.399       .  A
C447        C452   1.402       .  A
C448        C449   1.395       .  A
C448        H457   1.084       .  S
C449        C450   1.406       .  A
C449        H458   1.083       .  S
C450        C451   1.408       .  A
C451        C452   1.403       .  A
C451        H459   1.083       .  S
C452        H460   1.083       .  S
C461        C462   1.407       .  A
C461        C466   1.408       .  A
C462        C463   1.398       .  A
C462        H475   1.083       .  S
C463        C464   1.400       .  A
C463        H476   1.084       .  S
C464        C465   1.398       .  A
C464        C467   1.436       .  S
C465        C466   1.396       .  A
C465        H477   1.084       .  S
C466        H478   1.083       .  S
C467        C468   1.203       .  T
C468        C469   1.435       .  S
C469        C470   1.399       .  A
C469        C474   1.398       .  A
C470        C471   1.398       .  A
C470        H479   1.084       .  S
C471        C472   1.408       .  A
C471        H480   1.083       .  S
C472        C473   1.408       .  A
C473        C474   1.395       .  A
C473        H481   1.083       .  S
C474        H482   1.084       .  S
C483        C484   1.408       .  A
C483        C488   1.407       .  A
C484        C485   1.396       .  A
C484        H497   1.083       .  S
C485        C486   1.397       .  A
C485        H498   1.084       .  S
C486        C487   1.400       .  A
C486        C489   1.437       .  S
C487        C488   1.399       .  A
C487        H499   1.083       .  S
C488        H500   1.083       .  S
C489        C490   1.205       .  T
C490        C491   1.438       .  S
C491        C492   1.397       .  A
C491        C496   1.401       .  A
C492        C493   1.395       .  A
C492        H501   1.084       .  S
C493        C494   1.409       .  A
C493        H502   1.083       .  S
C494        C495   1.407       .  A
C495        C496   1.400       .  A
C495        H503   1.083       .  S
C496        H504   1.083       .  S
C505        C506   1.408       .  A
C505        C510   1.409       .  A
C506        C507   1.398       .  A
C506        H519   1.083       .  S
C507        C508   1.399       .  A
C507        H520   1.084       .  S
C508        C509   1.400       .  A
C508        C511   1.441       .  S
C509        C510   1.400       .  A
C509        H521   1.083       .  S
C510        H522   1.083       .  S
C511        C512   1.207       .  T
C512        C513   1.441       .  S
C513        C514   1.400       .  A
C513        C518   1.399       .  A
C514        C515   1.400       .  A
C514        H523   1.083       .  S
C515        C516   1.409       .  A
C515        H524   1.083       .  S
C516        C517   1.408       .  A
C517        C518   1.397       .  A
C517        H525   1.083   1_556  S
C518        H526   1.084       .  S
C527        C528   1.407       .  A
C527        C532   1.408       .  A
C528        C529   1.405       .  A
C528        H541   1.083       .  S
C529        C530   1.403       .  A
C529        H542   1.083       .  S
C530        C531   1.398       .  A
C530        C533   1.444       .  S
C531        C532   1.394       .  A
C531        H543   1.084       .  S
C532        H544   1.083       .  S
C533        C534   1.209       .  T
C534        C535   1.445       .  S
C535        C536   1.400       .  A
C535        C540   1.402       .  A
C536        C537   1.398       .  A
C536        H545   1.084       .  S
C537        C538   1.406       .  A
C537        H546   1.083       .  S
C538        C539   1.407       .  A
C539        C540   1.403       .  A
C539        H547   1.083       .  S
C540        H548   1.083       .  S
C549        C550   1.408       .  A
C549        C554   1.408       .  A
C550        C551   1.401       .  A
C550        H563   1.083       .  S
C551        C552   1.401       .  A
C551        H564   1.083       .  S
C552        C553   1.396       .  A
C552        C555   1.437       .  S
C553        C554   1.394       .  A
C553        H565   1.084       .  S
C554        H566   1.083       .  S
C555        C556   1.205       .  T
C556        C557   1.437       .  S
C557        C558   1.401       .  A
C557        C562   1.397       .  A
C558        C559   1.399       .  A
C558        H567   1.084       .  S
C559        C560   1.407       .  A
C559        H568   1.083       .  S
C560        C561   1.408       .  A
C561        C562   1.395       .  A
C561        H569   1.083       .  S
C562        H570   1.084       .  S
C571        C572   1.409       .  A
C571        C576   1.408       .  A
C572        C573   1.401       .  A
C572        H585   1.083       .  S
C573        C574   1.401       .  A
C573        H586   1.083       .  S
C574        C575   1.398       .  A
C574        C577   1.442       .  S
C575        C576   1.397       .  A
C575        H587   1.084       .  S
C576        H588   1.083       .  S
C577        C578   1.207       .  T
C578        C579   1.442       .  S
C579        C580   1.400       .  A
C579        C584   1.399       .  A
C580        C581   1.400       .  A
C580        H589   1.083       .  S
C581        C582   1.408       .  A
C581        H590   1.083       .  S
C582        C583   1.409       .  A
C583        C584   1.399       .  A
C583        H591   1.083       .  S
C584        H592   1.084       .  S
C593        C594   1.407       .  A
C593        C598   1.408       .  A
C594        C595   1.397       .  A
C594        H607   1.083       .  S
C595        C596   1.399       .  A
C595        H608   1.084       .  S
C596        C597   1.398       .  A
C596        C599   1.435       .  S
C597        C598   1.396       .  A
C597        H609   1.084       .  S
C598        H610   1.083       .  S
C599        C600   1.203       .  T
C600        C601   1.435       .  S
C601        C602   1.399       .  A
C601        C606   1.397       .  A
C602        C603   1.398       .  A
C602        H611   1.084       .  S
C603        C604   1.409       .  A
C603        H612   1.083       .  S
C604        C605   1.408       .  A
C605        C606   1.395       .  A
C605        H613   1.083       .  S
C606        H614   1.084       .  S
C615        C616   1.410       .  A
C615        C620   1.408       .  A
C616        C617   1.401       .  A
C616        H629   1.083       .  S
C617        C618   1.401       .  A
C617        H630   1.084       .  S
C618        C619   1.400       .  A
C618        C621   1.446       .  S
C619        C620   1.401       .  A
C619        H631   1.083       .  S
C620        H632   1.083       .  S
C621        C622   1.209   1_455  T
C622        C623   1.445       .  S
C623        C624   1.400       .  A
C623        C628   1.401       .  A
C624        C625   1.399       .  A
C624        H633   1.084       .  S
C625        C626   1.409       .  A
C625        H634   1.083       .  S
C626        C627   1.410       .  A
C627        C628   1.402       .  A
C627        H635   1.083       .  S
C628        H636   1.083       .  S
C637        C638   1.408       .  A
C637        C642   1.407       .  A
C638        C639   1.395       .  A
C638        H651   1.083       .  S
C639        C640   1.398       .  A
C639        H652   1.084       .  S
C640        C641   1.402       .  A
C640        C643   1.441       .  S
C641        C642   1.404       .  A
C641        H653   1.083       .  S
C642        H654   1.083       .  S
C643        C644   1.207       .  T
C644        C645   1.441       .  S
C645        C646   1.402       .  A
C645        C650   1.399       .  A
C646        C647   1.403       .  A
C646        H655   1.083       .  S
C647        C648   1.407       .  A
C647        H656   1.083       .  S
C648        C649   1.405       .  A
C649        C650   1.396       .  A
C649        H657   1.083       .  S
C650        H658   1.084       .  S
C659        C660   1.407       .  A
C659        C664   1.406       .  A
C660        C661   1.397       .  A
C660        H673   1.083       .  S
C661        C662   1.399       .  A
C661        H674   1.084       .  S
C662        C663   1.397       .  A
C662        C665   1.433       .  S
C663        C664   1.394       .  A
C663        H675   1.084       .  S
C664        H676   1.083       .  S
C665        C666   1.202       .  T
C666        C667   1.433       .  S
C667        C668   1.400       .  A
C667        C672   1.396       .  A
C668        C669   1.399       .  A
C668        H677   1.084       .  S
C669        C670   1.407       .  A
C669        H678   1.083       .  S
C670        C671   1.407       .  A
C671        C672   1.393       .  A
C671        H679   1.083       .  S
C672        H680   1.084       .  S
C681        C682   1.409       .  A
C681        C686   1.408       .  A
C682        C683   1.397       .  A
C682        H695   1.083       .  S
C683        C684   1.398       .  A
C683        H696   1.084       .  S
C684        C685   1.399       .  A
C684        C687   1.437       .  S
C685        C686   1.398       .  A
C685        H697   1.084       .  S
C686        H698   1.083       .  S
C687        C688   1.204       .  T
C688        C689   1.437       .  S
C689        C690   1.398   1_455  A
C689        C694   1.399       .  A
C690        C691   1.396       .  A
C690        H699   1.084       .  S
C691        C692   1.408       .  A
C691        H700   1.083       .  S
C692        C693   1.408   1_655  A
C693        C694   1.399       .  A
C693        H701   1.083       .  S
C694        H702   1.084       .  S
C703        C704   1.408       .  A
C703        C708   1.410       .  A
C704        C705   1.405       .  A
C704        H717   1.083       .  S
C705        C706   1.402       .  A
C705        H718   1.083       .  S
C706        C707   1.399       .  A
C706        C709   1.446       .  S
C707        C708   1.397       .  A
C707        H719   1.084       .  S
C708        H720   1.083       .  S
C709        C710   1.210       .  T
C710        C711   1.446       .  S
C711        C712   1.398       .  A
C711        C716   1.403       .  A
C712        C713   1.396       .  A
C712        H721   1.084       .  S
C713        C714   1.408       .  A
C713        H722   1.083       .  S
C714        C715   1.409       .  A
C715        C716   1.406       .  A
C715        H723   1.083       .  S
C716        H724   1.083       .  S
C725        C726   1.410   1_556  A
C725        C730   1.408       .  A
C726        C727   1.396       .  A
C726        H739   1.083       .  S
C727        C728   1.398       .  A
C727        H740   1.084       .  S
C728        C729   1.403   1_554  A
C728        C731   1.446       .  S
C729        C730   1.406       .  A
C729        H741   1.083       .  S
C730        H742   1.083       .  S
C731        C732   1.210       .  T
C732        C733   1.445       .  S
C733        C734   1.404       .  A
C733        C738   1.398       .  A
C734        C735   1.406       .  A
C734        H743   1.083       .  S
C735        C736   1.408       .  A
C735        H744   1.083       .  S
C736        C737   1.408       .  A
C737        C738   1.395       .  A
C737        H745   1.083       .  S
C738        H746   1.084       .  S
C747        C748   1.410       .  A
C747        C752   1.407       .  A
C748        C749   1.398       .  A
C748        H761   1.083       .  S
C749        C750   1.398       .  A
C749        H762   1.084       .  S
C750        C751   1.400       .  A
C750        C753   1.439       .  S
C751        C752   1.399       .  A
C751        H763   1.084       .  S
C752        H764   1.083       .  S
C753        C754   1.205       .  T
C754        C755   1.438       .  S
C755        C756   1.399       .  A
C755        C760   1.399       .  A
C756        C757   1.398       .  A
C756        H765   1.083       .  S
C757        C758   1.409       .  A
C757        H766   1.083       .  S
C758        C759   1.408       .  A
C759        C760   1.397       .  A
C759        H767   1.083       .  S
C760        H768   1.084       .  S
C769        C770   1.409       .  A
C769        C774   1.408       .  A
C770        C771   1.406       .  A
C770        H783   1.083       .  S
C771        C772   1.403       .  A
C771        H784   1.083       .  S
C772        C773   1.398       .  A
C772        C775   1.446       .  S
C773        C774   1.395       .  A
C773        H785   1.084       .  S
C774        H786   1.083       .  S
C775        C776   1.210       .  T
C776        C777   1.446       .  S
C777        C778   1.399       .  A
C777        C782   1.402       .  A
C778        C779   1.397       .  A
C778        H787   1.084       .  S
C779        C780   1.408       .  A
C779        H788   1.083       .  S
C780        C781   1.409       .  A
C781        C782   1.405       .  A
C781        H789   1.083       .  S
C782        H790   1.083       .  S
C791        C792   1.407       .  A
C791        C796   1.406       .  A
C792        C793   1.395       .  A
C792        H805   1.083       .  S
C793        C794   1.398       .  A
C793        H806   1.084       .  S
C794        C795   1.396       .  A
C794        C797   1.428       .  S
C795        C796   1.393       .  A
C795        H807   1.084       .  S
C796        H808   1.083       .  S
C797        C798   1.199       .  T
C798        C799   1.428       .  S
C799        C800   1.397       .  A
C799        C804   1.396       .  A
C800        C801   1.394       .  A
C800        H809   1.084       .  S
C801        C802   1.407       .  A
C801        H810   1.083       .  S
C802        C803   1.408       .  A
C803        C804   1.394       .  A
C803        H811   1.083       .  S
C804        H812   1.084       .  S
C813        C814   1.409       .  A
C813        C818   1.406       .  A
C814        C815   1.396       .  A
C814        H827   1.083       .  S
C815        C816   1.397       .  A
C815        H828   1.084       .  S
C816        C817   1.401       .  A
C816        C819   1.439       .  S
C817        C818   1.400       .  A
C817        H829   1.083       .  S
C818        H830   1.083       .  S
C819        C820   1.206       .  T
C820        C821   1.440       .  S
C821        C822   1.396       .  A
C821        C826   1.402       .  A
C822        C823   1.394       .  A
C822        H831   1.084       .  S
C823        C824   1.410       .  A
C823        H832   1.083       .  S
C824        C825   1.406       .  A
C825        C826   1.403       .  A
C825        H833   1.083       .  S
C826        H834   1.083       .  S
C835        C836   1.408       .  A
C835        C840   1.410       .  A
C836        C837   1.402       .  A
C836        H849   1.083       .  S
C837        C838   1.401       .  A
C837        H850   1.083       .  S
C838        C839   1.398       .  A
C838        C841   1.441       .  S
C839        C840   1.396       .  A
C839        H851   1.084   1_655  S
C840        H852   1.083       .  S
C841        C842   1.207   1_655  T
C842        C843   1.441       .  S
C843        C844   1.401       .  A
C843        C848   1.398       .  A
C844        C845   1.401       .  A
C844        H853   1.083       .  S
C845        C846   1.409       .  A
C845        H854   1.083       .  S
C846        C847   1.408       .  A
C847        C848   1.396       .  A
C847        H855   1.083       .  S
C848        H856   1.084   1_455  S
C857        C858   1.406       .  A
C857        C862   1.407       .  A
C858        C859   1.396       .  A
C858        H871   1.083       .  S
C859        C860   1.399       .  A
C859        H872   1.084       .  S
C860        C861   1.402       .  A
C860        C863   1.444       .  S
C861        C862   1.403       .  A
C861        H873   1.083       .  S
C862        H874   1.083       .  S
C863        C864   1.209       .  T
C864        C865   1.445   1_545  S
C865        C866   1.402       .  A
C865        C870   1.399       .  A
C866        C867   1.405       .  A
C866        H875   1.083       .  S
C867        C868   1.408       .  A
C867        H876   1.083       .  S
C868        C869   1.408       .  A
C869        C870   1.397       .  A
C869        H877   1.083       .  S
C870        H878   1.084       .  S
C879        C880   1.409       .  A
C879        C884   1.407       .  A
C880        C881   1.395       .  A
C880        H893   1.083       .  S
C881        C882   1.397       .  A
C881        H894   1.084       .  S
C882        C883   1.398       .  A
C882        C885   1.432       .  S
C883        C884   1.396       .  A
C883        H895   1.084       .  S
C884        H896   1.083       .  S
C885        C886   1.201       .  T
C886        C887   1.431       .  S
C887        C888   1.397       .  A
C887        C892   1.398   1_455  A
C888        C889   1.394   1_455  A
C888        H897   1.084       .  S
C889        C890   1.406       .  A
C889        H898   1.083       .  S
C890        C891   1.408       .  A
C891        C892   1.396       .  A
C891        H899   1.083       .  S
C892        H900   1.084       .  S
C901        C902   1.409       .  A
C901        C906   1.408       .  A
C902        C903   1.400       .  A
C902        H915   1.083       .  S
C903        C904   1.400       .  A
C903        H916   1.083       .  S
C904        C905   1.400       .  A
C904        C907   1.443       .  S
C905        C906   1.399       .  A
C905        H917   1.084   1_655  S
C906        H918   1.083       .  S
C907        C908   1.208   1_655  T
C908        C909   1.443       .  S
C909        C910   1.401       .  A
C909        C914   1.399       .  A
C910        C911   1.401       .  A
C910        H919   1.083       .  S
C911        C912   1.407       .  A
C911        H920   1.083       .  S
C912        C913   1.408       .  A
C913        C914   1.398       .  A
C913        H921   1.083       .  S
C914        H922   1.084   1_455  S
C923        C924   1.409       .  A
C923        C928   1.407   1_455  A
C924        C925   1.398   1_455  A
C924        H937   1.083       .  S
C925        C926   1.399       .  A
C925        H938   1.084       .  S
C926        C927   1.399       .  A
C926        C929   1.438       .  S
C927        C928   1.398       .  A
C927        H939   1.083       .  S
C928        H940   1.083       .  S
C929        C930   1.205       .  T
C930        C931   1.438       .  S
C931        C932   1.400       .  A
C931        C936   1.398       .  A
C932        C933   1.398       .  A
C932        H941   1.083       .  S
C933        C934   1.408       .  A
C933        H942   1.083       .  S
C934        C935   1.409       .  A
C935        C936   1.396       .  A
C935        H943   1.083       .  S
C936        H944   1.084       .  S
C945        C946   1.407       .  A
C945        C950   1.408       .  A
C946        C947   1.396   1_545  A
C946        H959   1.083       .  S
C947        C948   1.399       .  A
C947        H960   1.084       .  S
C948        C949   1.403       .  A
C948        C951   1.444       .  S
C949        C950   1.404   1_565  A
C949        H961   1.083       .  S
C950        H962   1.083       .  S
C951        C952   1.209       .  T
C952        C953   1.444       .  S
C953        C954   1.399       .  A
C953        C958   1.402       .  A
C954        C955   1.396       .  A
C954        H963   1.084       .  S
C955        C956   1.407       .  A
C955        H964   1.083       .  S
C956        C957   1.407       .  A
C957        C958   1.403       .  A
C957        H965   1.083       .  S
C958        H966   1.083       .  S
C967        C968   1.406       .  A
C967        C972   1.408       .  A
C968        C969   1.401       .  A
C968        H981   1.083       .  S
C969        C970   1.401       .  A
C969        H982   1.083       .  S
C970        C971   1.399       .  A
C970        C973   1.442       .  S
C971        C972   1.398       .  A
C971        H983   1.084       .  S
C972        H984   1.083       .  S
C973        C974   1.207   1_655  T
C974        C975   1.442   1_564  S
C975        C976   1.401       .  A
C975        C980   1.399   1_545  A
C976        C977   1.400       .  A
C976        H985   1.083   1_556  S
C977        C978   1.408       .  A
C977        H986   1.083       .  S
C978        C979   1.408       .  A
C979        C980   1.398   1_545  A
C979        H987   1.083   1_545  S
C980        H988   1.084       .  S
C989        C990   1.407       .  A
C989        C994   1.409       .  A
C990        C991   1.398       .  A
C990       H1003   1.083       .  S
C991        C992   1.399       .  A
C991       H1004   1.083       .  S
C992        C993   1.399       .  A
C992        C995   1.438       .  S
C993        C994   1.398       .  A
C993       H1005   1.084       .  S
C994       H1006   1.083       .  S
C995        C996   1.205       .  T
C996        C997   1.439       .  S
C997        C998   1.400       .  A
C997       C1002   1.398       .  A
C998        C999   1.399       .  A
C998       H1007   1.084       .  S
C999       C1000   1.408       .  A
C999       H1008   1.083       .  S
C1000      C1001   1.408       .  A
C1001      C1002   1.397       .  A
C1001      H1009   1.083       .  S
C1002      H1010   1.084       .  S
C1011      C1012   1.408       .  A
C1011      C1016   1.406       .  A
C1012      C1013   1.404       .  A
C1012      H1025   1.083       .  S
C1013      C1014   1.403       .  A
C1013      H1026   1.083       .  S
C1014      C1015   1.399       .  A
C1014      C1017   1.445       .  S
C1015      C1016   1.397       .  A
C1015      H1027   1.084       .  S
C1016      H1028   1.083       .  S
C1017      C1018   1.210   1_556  T
C1018      C1019   1.446       .  S
C1019      C1020   1.398       .  A
C1019      C1024   1.403       .  A
C1020      C1021   1.396       .  A
C1020      H1029   1.084   1_554  S
C1021      C1022   1.409       .  A
C1021      H1030   1.083       .  S
C1022      C1023   1.409       .  A
C1023      C1024   1.406       .  A
C1023      H1031   1.083       .  S
C1024      H1032   1.083       .  S
C1033      C1034   1.409       .  A
C1033      C1038   1.409       .  A
C1034      C1035   1.401       .  A
C1034      H1047   1.083       .  S
C1035      C1036   1.401       .  A
C1035      H1048   1.083       .  S
C1036      C1037   1.399       .  A
C1036      C1039   1.445       .  S
C1037      C1038   1.400       .  A
C1037      H1049   1.083       .  S
C1038      H1050   1.083       .  S
C1039      C1040   1.209   1_655  T
C1040      C1041   1.445       .  S
C1041      C1042   1.400       .  A
C1041      C1046   1.400       .  A
C1042      C1043   1.400       .  A
C1042      H1051   1.084       .  S
C1043      C1044   1.409       .  A
C1043      H1052   1.083       .  S
C1044      C1045   1.409       .  A
C1045      C1046   1.401       .  A
C1045      H1053   1.083       .  S
C1046      H1054   1.083       .  S
C1055      C1056   1.409       .  A
C1055      C1060   1.407       .  A
C1056      C1057   1.405       .  A
C1056      H1069   1.083       .  S
C1057      C1058   1.403       .  A
C1057      H1070   1.083       .  S
C1058      C1059   1.398       .  A
C1058      C1061   1.444       .  S
C1059      C1060   1.395       .  A
C1059      H1071   1.084       .  S
C1060      H1072   1.083       .  S
C1061      C1062   1.209       .  T
C1062      C1063   1.444       .  S
C1063      C1064   1.398       .  A
C1063      C1068   1.403       .  A
C1064      C1065   1.395       .  A
C1064      H1073   1.084       .  S
C1065      C1066   1.406       .  A
C1065      H1074   1.083       .  S
C1066      C1067   1.408       .  A
C1067      C1068   1.406       .  A
C1067      H1075   1.083       .  S
C1068      H1076   1.083       .  S
C1077      C1078   1.409       .  A
C1077      C1082   1.407       .  A
C1078      C1079   1.400       .  A
C1078      H1091   1.083       .  S
C1079      C1080   1.400       .  A
C1079      H1092   1.083       .  S
C1080      C1081   1.399       .  A
C1080      C1083   1.440       .  S
C1081      C1082   1.397       .  A
C1081      H1093   1.084       .  S
C1082      H1094   1.083       .  S
C1083      C1084   1.206       .  T
C1084      C1085   1.440       .  S
C1085      C1086   1.398       .  A
C1085      C1090   1.400       .  A
C1086      C1087   1.398       .  A
C1086      H1095   1.084       .  S
C1087      C1088   1.409       .  A
C1087      H1096   1.083       .  S
C1088      C1089   1.408       .  A
C1089      C1090   1.400       .  A
C1089      H1097   1.083       .  S
C1090      H1098   1.083       .  S
C1099      C1100   1.411   1_455  A
C1099      C1104   1.408       .  A
C1100      C1101   1.399       .  A
C1100      H1113   1.083       .  S
C1101      C1102   1.399       .  A
C1101      H1114   1.084       .  S
C1102      C1103   1.401       .  A
C1102      C1105   1.444       .  S
C1103      C1104   1.401   1_655  A
C1103      H1115   1.083       .  S
C1104      H1116   1.083       .  S
C1105      C1106   1.208       .  T
C1106      C1107   1.444       .  S
C1107      C1108   1.401       .  A
C1107      C1112   1.399       .  A
C1108      C1109   1.401       .  A
C1108      H1117   1.083       .  S
C1109      C1110   1.409       .  A
C1109      H1118   1.083       .  S
C1110      C1111   1.409       .  A
C1111      C1112   1.398       .  A
C1111      H1119   1.083       .  S
C1112      H1120   1.084       .  S
C1121      C1122   1.407       .  A
C1121      C1126   1.407       .  A
C1122      C1123   1.395       .  A
C1122      H1135   1.083       .  S
C1123      C1124   1.399       .  A
C1123      H1136   1.084       .  S
C1124      C1125   1.402       .  A
C1124      C1127   1.441       .  S
C1125      C1126   1.403       .  A
C1125      H1137   1.083       .  S
C1126      H1138   1.083       .  S
C1127      C1128   1.207       .  T
C1128      C1129   1.441       .  S
C1129      C1130   1.402       .  A
C1129      C1134   1.398       .  A
C1130      C1131   1.404       .  A
C1130      H1139   1.083       .  S
C1131      C1132   1.409       .  A
C1131      H1140   1.083       .  S
C1132      C1133   1.408       .  A
C1133      C1134   1.394       .  A
C1133      H1141   1.083       .  S
C1134      H1142   1.084       .  S
C1143      C1144   1.409       .  A
C1143      C1148   1.409       .  A
C1144      C1145   1.399       .  A
C1144      H1157   1.083       .  S
C1145      C1146   1.400       .  A
C1145      H1158   1.084       .  S
C1146      C1147   1.401       .  A
C1146      C1149   1.446       .  S
C1147      C1148   1.402       .  A
C1147      H1159   1.083       .  S
C1148      H1160   1.083       .  S
C1149      C1150   1.210       .  T
C1150      C1151   1.446       .  S
C1151      C1152   1.401       .  A
C1151      C1156   1.400       .  A
C1152      C1153   1.401       .  A
C1152      H1161   1.083       .  S
C1153      C1154   1.409       .  A
C1153      H1162   1.083       .  S
C1154      C1155   1.409       .  A
C1155      C1156   1.400       .  A
C1155      H1163   1.083       .  S
C1156      H1164   1.083       .  S
C1165      C1166   1.409       .  A
C1165      C1170   1.408       .  A
C1166      C1167   1.399       .  A
C1166      H1179   1.083       .  S
C1167      C1168   1.399       .  A
C1167      H1180   1.084       .  S
C1168      C1169   1.399       .  A
C1168      C1171   1.438       .  S
C1169      C1170   1.398       .  A
C1169      H1181   1.084       .  S
C1170      H1182   1.083       .  S
C1171      C1172   1.205       .  T
C1172      C1173   1.438       .  S
C1173      C1174   1.399       .  A
C1173      C1178   1.399       .  A
C1174      C1175   1.397       .  A
C1174      H1183   1.084       .  S
C1175      C1176   1.408       .  A
C1175      H1184   1.083       .  S
C1176      C1177   1.408       .  A
C1177      C1178   1.398       .  A
C1177      H1185   1.083       .  S
C1178      H1186   1.083       .  S
C1187      C1188   1.407       .  A
C1187      C1192   1.407   1_556  A
C1188      C1189   1.402       .  A
C1188      H1201   1.083       .  S
C1189      C1190   1.401   1_556  A
C1189      H1202   1.083       .  S
C1190      C1191   1.399       .  A
C1190      C1193   1.441       .  S
C1191      C1192   1.396       .  A
C1191      H1203   1.084       .  S
C1192      H1204   1.083       .  S
C1193      C1194   1.207       .  T
C1194      C1195   1.441       .  S
C1195      C1196   1.399       .  A
C1195      C1200   1.401       .  A
C1196      C1197   1.396       .  A
C1196      H1205   1.084       .  S
C1197      C1198   1.407       .  A
C1197      H1206   1.083       .  S
C1198      C1199   1.407       .  A
C1199      C1200   1.402       .  A
C1199      H1207   1.083       .  S
C1200      H1208   1.083       .  S
C1209      C1210   1.408       .  A
C1209      C1214   1.408       .  A
C1210      C1211   1.394       .  A
C1210      H1223   1.083       .  S
C1211      C1212   1.396       .  A
C1211      H1224   1.084       .  S
C1212      C1213   1.401       .  A
C1212      C1215   1.437       .  S
C1213      C1214   1.401       .  A
C1213      H1225   1.083       .  S
C1214      H1226   1.083       .  S
C1215      C1216   1.204       .  T
C1216      C1217   1.436       .  S
C1217      C1218   1.398       .  A
C1217      C1222   1.400       .  A
C1218      C1219   1.396       .  A
C1218      H1227   1.084       .  S
C1219      C1220   1.407       .  A
C1219      H1228   1.083       .  S
C1220      C1221   1.405       .  A
C1221      C1222   1.398       .  A
C1221      H1229   1.083       .  S
C1222      H1230   1.084       .  S
C1231      C1232   1.409       .  A
C1231      C1236   1.409       .  A
C1232      C1233   1.400       .  A
C1232      H1245   1.083       .  S
C1233      C1234   1.400       .  A
C1233      H1246   1.084       .  S
C1234      C1235   1.402       .  A
C1234      C1237   1.447       .  S
C1235      C1236   1.403       .  A
C1235      H1247   1.083       .  S
C1236      H1248   1.083       .  S
C1237      C1238   1.210       .  T
C1238      C1239   1.447       .  S
C1239      C1240   1.400       .  A
C1239      C1244   1.401       .  A
C1240      C1241   1.400       .  A
C1240      H1249   1.084       .  S
C1241      C1242   1.410       .  A
C1241      H1250   1.083       .  S
C1242      C1243   1.409       .  A
C1243      C1244   1.402       .  A
C1243      H1251   1.083       .  S
C1244      H1252   1.083       .  S
C1253      C1254   1.407       .  A
C1253      C1258   1.408       .  A
C1254      C1255   1.405       .  A
C1254      H1267   1.083       .  S
C1255      C1256   1.403       .  A
C1255      H1268   1.083       .  S
C1256      C1257   1.399       .  A
C1256      C1259   1.446       .  S
C1257      C1258   1.396       .  A
C1257      H1269   1.084       .  S
C1258      H1270   1.083       .  S
C1259      C1260   1.210       .  T
C1260      C1261   1.446   1_545  S
C1261      C1262   1.398       .  A
C1261      C1266   1.403       .  A
C1262      C1263   1.396       .  A
C1262      H1271   1.084       .  S
C1263      C1264   1.409       .  A
C1263      H1272   1.083       .  S
C1264      C1265   1.409       .  A
C1265      C1266   1.406       .  A
C1265      H1273   1.083       .  S
C1266      H1274   1.083       .  S
C1275      C1276   1.409       .  A
C1275      C1280   1.407       .  A
C1276      C1277   1.396       .  A
C1276      H1289   1.083       .  S
C1277      C1278   1.398       .  A
C1277      H1290   1.084       .  S
C1278      C1279   1.398       .  A
C1278      C1281   1.431       .  S
C1279      C1280   1.395       .  A
C1279      H1291   1.084       .  S
C1280      H1292   1.083       .  S
C1281      C1282   1.201       .  T
C1282      C1283   1.431       .  S
C1283      C1284   1.397       .  A
C1283      C1288   1.398       .  A
C1284      C1285   1.395       .  A
C1284      H1293   1.084       .  S
C1285      C1286   1.408       .  A
C1285      H1294   1.083       .  S
C1286      C1287   1.405       .  A
C1287      C1288   1.396       .  A
C1287      H1295   1.083       .  S
C1288      H1296   1.084       .  S
C1297      C1298   1.409       .  A
C1297      C1302   1.407       .  A
C1298      C1299   1.394       .  A
C1298      H1311   1.083       .  S
C1299      C1300   1.396       .  A
C1299      H1312   1.084       .  S
C1300      C1301   1.400       .  A
C1300      C1303   1.434       .  S
C1301      C1302   1.399       .  A
C1301      H1313   1.083       .  S
C1302      H1314   1.083       .  S
C1303      C1304   1.202       .  T
C1304      C1305   1.434       .  S
C1305      C1306   1.397       .  A
C1305      C1310   1.400       .  A
C1306      C1307   1.395       .  A
C1306      H1315   1.084       .  S
C1307      C1308   1.408       .  A
C1307      H1316   1.083       .  S
C1308      C1309   1.407       .  A
C1309      C1310   1.397       .  A
C1309      H1317   1.083       .  S
C1310      H1318   1.084       .  S
C1319      C1320   1.408       .  A
C1319      C1324   1.407       .  A
C1320      C1321   1.404       .  A
C1320      H1333   1.083       .  S
C1321      C1322   1.402       .  A
C1321      H1334   1.083       .  S
C1322      C1323   1.397       .  A
C1322      C1325   1.439       .  S
C1323      C1324   1.392       .  A
C1323      H1335   1.084       .  S
C1324      H1336   1.083       .  S
C1325      C1326   1.206       .  T
C1326      C1327   1.439       .  S
C1327      C1328   1.398       .  A
C1327      C1332   1.401       .  A
C1328      C1329   1.394       .  A
C1328      H1337   1.084       .  S
C1329      C1330   1.407       .  A
C1329      H1338   1.083       .  S
C1330      C1331   1.408       .  A
C1331      C1332   1.402       .  A
C1331      H1339   1.083       .  S
C1332      H1340   1.083       .  S
C1341      C1342   1.408       .  A
C1341      C1346   1.408       .  A
C1342      C1343   1.402       .  A
C1342      H1355   1.083       .  S
C1343      C1344   1.401       .  A
C1343      H1356   1.083       .  S
C1344      C1345   1.399       .  A
C1344      C1347   1.443       .  S
C1345      C1346   1.398       .  A
C1345      H1357   1.084       .  S
C1346      H1358   1.083       .  S
C1347      C1348   1.208       .  T
C1348      C1349   1.444       .  S
C1349      C1350   1.401       .  A
C1349      C1354   1.399       .  A
C1350      C1351   1.401       .  A
C1350      H1359   1.083       .  S
C1351      C1352   1.408       .  A
C1351      H1360   1.083       .  S
C1352      C1353   1.410       .  A
C1353      C1354   1.399       .  A
C1353      H1361   1.083       .  S
C1354      H1362   1.084       .  S
C1363      C1364   1.408       .  A
C1363      C1368   1.408       .  A
C1364      C1365   1.395       .  A
C1364      H1377   1.083   1_556  S
C1365      C1366   1.398       .  A
C1365      H1378   1.084       .  S
C1366      C1367   1.399       .  A
C1366      C1369   1.435       .  S
C1367      C1368   1.398       .  A
C1367      H1379   1.084       .  S
C1368      H1380   1.083       .  S
C1369      C1370   1.203       .  T
C1370      C1371   1.436       .  S
C1371      C1372   1.400       .  A
C1371      C1376   1.397       .  A
C1372      C1373   1.398       .  A
C1372      H1381   1.084       .  S
C1373      C1374   1.408       .  A
C1373      H1382   1.083       .  S
C1374      C1375   1.408       .  A
C1375      C1376   1.396       .  A
C1375      H1383   1.083       .  S
C1376      H1384   1.084       .  S
C1385      C1386   1.407       .  A
C1385      C1390   1.409       .  A
C1386      C1387   1.395   1_545  A
C1386      H1399   1.083       .  S
C1387      C1388   1.398       .  A
C1387      H1400   1.084       .  S
C1388      C1389   1.402       .  A
C1388      C1391   1.444       .  S
C1389      C1390   1.405   1_565  A
C1389      H1401   1.083       .  S
C1390      H1402   1.083       .  S
C1391      C1392   1.209       .  T
C1392      C1393   1.445       .  S
C1393      C1394   1.404       .  A
C1393      C1398   1.397       .  A
C1394      C1395   1.407       .  A
C1394      H1403   1.083       .  S
C1395      C1396   1.409       .  A
C1395      H1404   1.083       .  S
C1396      C1397   1.408       .  A
C1397      C1398   1.394       .  A
C1397      H1405   1.083       .  S
C1398      H1406   1.084       .  S
C1407      C1408   1.409       .  A
C1407      C1412   1.407       .  A
C1408      C1409   1.394       .  A
C1408      H1421   1.083       .  S
C1409      C1410   1.396       .  A
C1409      H1422   1.084       .  S
C1410      C1411   1.401       .  A
C1410      C1413   1.437       .  S
C1411      C1412   1.400       .  A
C1411      H1423   1.083       .  S
C1412      H1424   1.083       .  S
C1413      C1414   1.204       .  T
C1414      C1415   1.437   1_565  S
C1415      C1416   1.397   1_545  A
C1415      C1420   1.400       .  A
C1416      C1417   1.395   1_565  A
C1416      H1425   1.084       .  S
C1417      C1418   1.409       .  A
C1417      H1426   1.083   1_545  S
C1418      C1419   1.407       .  A
C1419      C1420   1.400       .  A
C1419      H1427   1.083       .  S
C1420      H1428   1.083       .  S
C1429      C1430   1.407       .  A
C1429      C1434   1.408       .  A
C1430      C1431   1.398       .  A
C1430      H1443   1.083   1_556  S
C1431      C1432   1.399       .  A
C1431      H1444   1.083       .  S
C1432      C1433   1.397       .  A
C1432      C1435   1.434       .  S
C1433      C1434   1.394       .  A
C1433      H1445   1.084       .  S
C1434      H1446   1.083       .  S
C1435      C1436   1.203       .  T
C1436      C1437   1.434       .  S
C1437      C1438   1.397       .  A
C1437      C1442   1.399       .  A
C1438      C1439   1.395       .  A
C1438      H1447   1.084       .  S
C1439      C1440   1.409       .  A
C1439      H1448   1.083       .  S
C1440      C1441   1.407       .  A
C1441      C1442   1.398       .  A
C1441      H1449   1.083       .  S
C1442      H1450   1.084       .  S
C1451      C1452   1.408       .  A
C1451      C1456   1.410       .  A
C1452      C1453   1.395       .  A
C1452      H1465   1.083       .  S
C1453      C1454   1.397       .  A
C1453      H1466   1.084       .  S
C1454      C1455   1.404       .  A
C1454      C1457   1.446       .  S
C1455      C1456   1.408       .  A
C1455      H1467   1.083       .  S
C1456      H1468   1.083       .  S
C1457      C1458   1.210       .  T
C1458      C1459   1.447       .  S
C1459      C1460   1.401       .  A
C1459      C1464   1.402       .  A
C1460      C1461   1.399       .  A
C1460      H1469   1.084       .  S
C1461      C1462   1.406       .  A
C1461      H1470   1.083       .  S
C1462      C1463   1.408       .  A
C1463      C1464   1.404       .  A
C1463      H1471   1.083       .  S
C1464      H1472   1.083       .  S
