geometry optimzed in LAMMPS
_audit_creation_date              2020-12-01 
_audit_creation_method            'lammps2cif' 
_symmetry_space_group_name_H-M    'P1' 
_symmetry_Int_Tables_number       1 
_symmetry_cell_setting            triclinic 
loop_ 
_symmetry_equiv_pos_as_xyz 
  x,y,z 
_cell_length_a                    46.14934516 
_cell_length_b                    45.30678805178684 
_cell_length_c                    37.55905336149892 
_cell_angle_alpha                 90.06983907775775 
_cell_angle_beta                  90.10966922590238 
_cell_angle_gamma                 90.4126463833472 
loop_ 
_atom_site_label 
_atom_site_type_symbol 
_atom_site_fract_x 
_atom_site_fract_y 
_atom_site_fract_z 
_atom_site_charge 
Fe1        Fe  0.22484503  0.40039688  0.06180813     1.65800
Fe2        Fe  0.26850764  0.34572269  0.08862652     1.73200
Fe3        Fe  0.29760197  0.40837810  0.05232441     1.54400
O4          O  0.26521157  0.40503504  0.50423926    -0.80400
O5          O  0.30407373  0.35723325  0.11848783    -0.78700
O6          O  0.21946272  0.38959692  0.51369652    -0.82900
O7          O  0.23627651  0.44381857  0.06346201    -0.77700
O8          O  0.31499677  0.37243750  0.02555243    -0.79500
O9          O  0.24336167  0.35885139  0.13162410    -0.82200
C10         C  0.25805031  0.45897129  0.07240466     0.98500
C11         C  0.24036261  0.39647193  0.49308362     1.06000
O12         O  0.26404617  0.38493755  0.06814335    -1.11200
O13         O  0.23531218  0.32672945  0.05952418    -0.73700
O14         O  0.20243983  0.36137134  0.05767290    -0.77100
O15         O  0.28297931  0.44746520  0.07614643    -0.77800
C16         C  0.21049889  0.33553969  0.05093028     0.97400
O17         O  0.22002481  0.40056400  0.11613038    -0.75800
O18         O  0.29385083  0.33179983  0.04756465    -0.81000
C19         C  0.32319284  0.37737555  0.11912387     1.00100
C20         C  0.31036723  0.34470402  0.02551417     1.06000
O21         O  0.32306756  0.39915277  0.09759997    -0.76600
C22         C  0.22940192  0.38233977  0.13922750     1.04300
Fe23       Fe  0.39124598  0.22462306  0.20501069     1.65800
Fe24       Fe  0.33784620  0.27272520  0.19036365     1.73200
Fe25       Fe  0.40069431  0.29617095  0.22867123     1.54400
O26         O  0.40797550  0.26853874  0.27255776    -0.80400
O27         O  0.34979864  0.31095006  0.16496407    -0.78700
O28         O  0.38938231  0.22355466  0.25980467    -0.82900
O29         O  0.43484339  0.23419914  0.20725892    -0.77700
O30         O  0.36685533  0.31344905  0.25805558    -0.79500
O31         O  0.34783005  0.24993204  0.14329323    -0.82200
C32         C  0.45011617  0.25704507  0.20288870     0.98500
C33         C  0.39708813  0.24356290  0.28196057     1.06000
O34         O  0.37686083  0.26515898  0.20745056    -1.11200
O35         O  0.32060357  0.23740173  0.21717195    -0.73700
O36         O  0.35166358  0.20341584  0.20245042    -0.77100
O37         O  0.43888274  0.28263203  0.20320385    -0.77800
C38         C  0.32873164  0.21107304  0.21786221     0.97400
O39         O  0.39157472  0.22881938  0.15046573    -0.75800
O40         O  0.32580022  0.29550075  0.23516644    -0.81000
C41         C  0.37054621  0.32943582  0.16629918     1.00100
C42         C  0.33955810  0.31008078  0.25859311     1.06000
O43         O  0.39246728  0.32641059  0.18695948    -0.76600
C44         C  0.37129673  0.23899679  0.13082796     1.04300
Fe45       Fe  0.22397410  0.08413307  0.30618061     1.65800
Fe46       Fe  0.26874106  0.13680163  0.33731381     1.73200
Fe47       Fe  0.29566075  0.07845852  0.29191761     1.54400
O48         O  0.28413902  0.04003684  0.31988045    -0.80400
O49         O  0.29623291  0.15259135  0.29747355    -0.78700
O50         O  0.23739272  0.04079845  0.30494148    -0.82900
O51         O  0.22968029  0.08899106  0.25202896    -0.77700
O52         O  0.32678985  0.09362380  0.32965818    -0.79500
O53         O  0.23679961  0.15775136  0.30861869    -0.82200
C54         C  0.25024971  0.07797890  0.23402799     0.98500
C55         C  0.25966797  0.02696386  0.31526563     1.06000
O56         O  0.26312225  0.09971547  0.31272172    -1.11200
O57         O  0.24179257  0.12217374  0.37870798    -0.73700
O58         O  0.21922227  0.08057168  0.36053110    -0.77100
O59         O  0.27072564  0.06387768  0.24882109    -0.77800
C60         C  0.22766488  0.09823707  0.38492462     0.97400
O61         O  0.20247232  0.12384050  0.30588320    -0.75800
O62         O  0.30237723  0.12129081  0.36775032    -0.81000
C63         C  0.30691028  0.14179998  0.26892045     1.00100
C64         C  0.32603402  0.11121256  0.35628271     1.05200
O65         O  0.30699273  0.11440928  0.26183091    -0.76600
C66         C  0.21149971  0.14976540  0.30018522     1.04300
Fe67       Fe  0.39891338  0.26515600  0.45949608     1.65800
Fe68       Fe  0.34279467  0.22282517  0.43502162     1.73200
Fe69       Fe  0.39823429  0.19340602  0.48201446     1.54400
O70         O  0.43825109  0.20224015  0.45744991    -0.80400
O71         O  0.32375219  0.20118969  0.47829552    -0.78700
O72         O  0.43963351  0.24985588  0.46972090    -0.82900
O73         O  0.39226474  0.25549785  0.01956147    -0.77700
O74         O  0.38688750  0.16176354  0.44287709    -0.79500
O75         O  0.32778330  0.26099977  0.45957663    -0.82200
C76         C  0.40298106  0.23406120  0.03691723     0.98500
C77         C  0.45220304  0.22649095  0.46052220     1.06000
O78         O  0.38008222  0.22626582  0.45782226    -1.11200
O79         O  0.36169656  0.24363802  0.38993865    -0.73700
O80         O  0.40548978  0.26239549  0.40587600    -0.77100
O81         O  0.41596248  0.21302946  0.02138975    -0.77800
C82         C  0.38688906  0.25454751  0.38244819     0.97400
O83         O  0.36372247  0.29104165  0.44864301    -0.75800
O84         O  0.35142574  0.18258405  0.41107798    -0.81000
C85         C  0.33769092  0.17880716  0.00404202     1.00100
C86         C  0.36676507  0.16042569  0.41937921     1.06000
O87         O  0.36488294  0.17696849  0.00943531    -0.76600
C88         C  0.33880215  0.28656312  0.46046317     1.04300
Fe89       Fe  0.25465752  0.09175629  0.06637755     1.65800
Fe90       Fe  0.20846057  0.14661433  0.08257751     1.73200
Fe91       Fe  0.18487184  0.08408725  0.04118833     1.54400
O92         O  0.21438961  0.07465255  0.49627272    -0.80400
O93         O  0.17112103  0.13431555  0.10867873    -0.78700
O94         O  0.25636590  0.09780669  0.50746231    -0.82900
O95         O  0.24215634  0.04839327  0.06500359    -0.77700
O96         O  0.17367670  0.11846376  0.00795958    -0.79500
O97         O  0.23119604  0.13576537  0.12927690    -0.82200
C98         C  0.21920883  0.03433449  0.07221157     0.98500
C99         C  0.23724936  0.08823916  0.48585903     1.06000
O100        O  0.21533908  0.10738605  0.06409498    -1.11200
O101        O  0.24343001  0.16416632  0.05576628    -0.73700
O102        O  0.27669046  0.13144786  0.06803142    -0.77100
O103        O  0.19451165  0.04680562  0.07189374    -0.77800
C104        C  0.26924659  0.15554811  0.05422543     0.97400
O105        O  0.25154341  0.09131531  0.12082651    -0.75800
O106        O  0.18542190  0.15956960  0.03790951    -0.81000
C107        C  0.15009854  0.11756782  0.10004170     1.00100
C108        C  0.17489554  0.14637723  0.01082376     1.06000
O109        O  0.15215194  0.09736171  0.07649149    -0.76600
C110        C  0.24220041  0.11175696  0.14106981     1.04300
Fe111      Fe  0.08954061  0.26477748  0.20268593     1.65800
Fe112      Fe  0.14186878  0.21807416  0.18071206     1.73200
Fe113      Fe  0.08332739  0.19375284  0.22674492     1.54400
O114        O  0.07663521  0.22250386  0.26950403    -0.80400
O115        O  0.12932471  0.17878471  0.15747719    -0.78700
O116        O  0.09840463  0.26565865  0.25656797    -0.82900
O117        O  0.04734909  0.25349789  0.21303592    -0.77700
O118        O  0.11932077  0.17890439  0.25358983    -0.79500
O119        O  0.12561893  0.23964220  0.13490890    -0.82200
C120        C  0.03263257  0.23101553  0.20468509     0.98500
C121        C  0.09059319  0.24583230  0.27883273     1.06000
O122        O  0.10475193  0.22463551  0.20251275    -1.11200
O123        O  0.16014816  0.25515396  0.20499432    -0.73700
O124        O  0.12708699  0.28700569  0.19062758    -0.77100
O125        O  0.04437319  0.20577793  0.20200346    -0.77800
C126        C  0.15132035  0.28138990  0.20368532     0.97400
O127        O  0.08288174  0.26082519  0.14925570    -0.75800
O128        O  0.15838723  0.19527595  0.22421374    -0.81000
C129        C  0.11118648  0.15848144  0.16484557     1.00100
C130        C  0.14655509  0.18102285  0.24963322     1.06000
O131        O  0.09105964  0.16150613  0.18783685    -0.76600
C132        C  0.10111749  0.25130188  0.12652925     1.04300
Fe133      Fe  0.08233131  0.22554909  0.45555315     1.65800
Fe134      Fe  0.13486526  0.27282005  0.43215583     1.73200
Fe135      Fe  0.07436872  0.29779245  0.47359169     1.54400
O136        O  0.03753225  0.28551275  0.44360726    -0.80400
O137        O  0.14808859  0.29954178  0.47429333    -0.78700
O138        O  0.03961961  0.23752814  0.45551372    -0.82900
O139        O  0.10000985  0.21995791  0.00340666    -0.77700
O140        O  0.08889372  0.33022682  0.43719003    -0.79500
O141        O  0.15394983  0.23980216  0.46107621    -0.82200
C142        C  0.09150015  0.23865716  0.02639890     0.98500
C143        C  0.02545861  0.26001544  0.44623685     1.06000
O144        O  0.09709684  0.26589289  0.45295459    -1.11200
O145        O  0.12335623  0.24678688  0.38808783    -0.73700
O146        O  0.08132337  0.22370505  0.40109230    -0.77100
O147        O  0.07718307  0.26165569  0.01789951    -0.77800
C148        C  0.10010432  0.23307407  0.37895221     0.97400
O149        O  0.12145433  0.20441567  0.45596691    -0.75800
O150        O  0.12097142  0.30768247  0.40255306    -0.81000
C151        C  0.14556435  0.30790160  0.99662877     1.00100
C152        C  0.10797171  0.33064855  0.41259223     1.06000
O153        O  0.11851264  0.30718181  0.00249507    -0.76600
C154        C  0.14597100  0.21355160  0.46598401     1.04300
Fe155      Fe  0.26146692  0.39762944  0.31461199     1.65800
Fe156      Fe  0.21623471  0.34522801  0.34639045     1.73200
Fe157      Fe  0.19204696  0.39572472  0.28751250     1.54400
O158        O  0.19785490  0.43797649  0.30985305    -0.80400
O159        O  0.19242081  0.32343826  0.30786068    -0.78700
O160        O  0.24598122  0.43949342  0.30494930    -0.82900
O161        O  0.26241952  0.38741853  0.26085359    -0.77700
O162        O  0.15864969  0.38409051  0.32248862    -0.79500
O163        O  0.25137096  0.32422882  0.32359942    -0.82200
C164        C  0.24304249  0.39415535  0.23827286     0.98500
C165        C  0.22186615  0.45239860  0.30871829     1.06000
O166        O  0.22274043  0.37996123  0.31730381    -1.11200
O167        O  0.23959764  0.36436561  0.38781503    -0.73700
O168        O  0.26067875  0.40627732  0.36843147    -0.77100
O169        O  0.22019218  0.40747133  0.24742297    -0.77800
C170        C  0.25218150  0.38918552  0.39328043     0.97400
O171        O  0.28416531  0.35971289  0.32421044    -0.75800
O172        O  0.17882498  0.36205714  0.36923854    -0.81000
C173        C  0.18588283  0.32894342  0.27571119     1.00100
C174        C  0.15665031  0.37108818  0.35240808     1.06000
O175        O  0.18666205  0.35491770  0.26260999    -0.76600
C176        C  0.27667856  0.33357247  0.31712497     1.04300
C177        C  0.11957736  0.35893679  0.39850430    -0.15100
C178        C  0.12748831  0.36096840  0.36415637    -0.30300
H179        H  0.13024350  0.37315342  0.41788018     0.13900
H180        H  0.11594419  0.34736125  0.34486681     0.14500
C181        C  0.16764211  0.30588149  0.22001811    -0.15100
C182        C  0.17665807  0.30349607  0.25378765    -0.30300
H183        H  0.16697944  0.32741528  0.20734545     0.13900
H184        H  0.17523119  0.28212864  0.26691012     0.14500
C185        C  0.09816898  0.24990677  0.31678021    -0.15100
C186        C  0.09388876  0.22836993  0.34094932    -0.30300
H187        H  0.10815502  0.27064569  0.32490773     0.13900
H188        H  0.08287831  0.20805432  0.33334384     0.14500
C189        C  0.09907718  0.23401642  0.06419191    -0.15100
C190        C  0.09319745  0.25462355  0.08888124    -0.30300
H191        H  0.11081261  0.21422959  0.07159795     0.13900
H192        H  0.08050370  0.27385138  0.08179629     0.14500
C193        C  0.16494188  0.19358480  0.48585106    -0.15100
C194        C  0.16251330  0.16407575  0.98176088    -0.30300
H195        H  0.18347834  0.20297663  0.49986932     0.13900
H196        H  0.14442458  0.15459717  0.96702500     0.14500
C197        C  0.11735202  0.12900413  0.14960574    -0.15100
C198        C  0.12133891  0.12563178  0.11445155    -0.30300
H199        H  0.12973857  0.11486303  0.16723822     0.13900
H200        H  0.10882304  0.13965705  0.09682863     0.14500
C201        C  0.48407155  0.22813457  0.45546476    -0.15100
C202        C  0.49835251  0.25451285  0.45368083    -0.30300
H203        H  0.49606951  0.20759176  0.45513062     0.13900
H204        H  0.48617881  0.27495121  0.45295438     0.14500
C205        C  0.31818851  0.16477454  0.03013970    -0.15100
C206        C  0.29050297  0.17322905  0.03398691    -0.30300
H207        H  0.32658100  0.14655278  0.04575631     0.13900
H208        H  0.28255886  0.19215726  0.01923876     0.14500
C209        C  0.25672207  0.99437886  0.31916958    -0.15100
C210        C  0.22255925  0.48532242  0.31037852    -0.30300
H211        H  0.27648573  0.98168725  0.32181698     0.13900
H212        H  0.20203705  0.49690769  0.31075210     0.14500
C213        C  0.19261765  0.17074999  0.28118938    -0.15100
C214        C  0.16462384  0.16440987  0.27488664    -0.30300
H215        H  0.20236578  0.19047959  0.26980176     0.13900
H216        H  0.15463667  0.14542600  0.28772930     0.14500
C217        C  0.35323629  0.12491226  0.37074283    -0.15100
C218        C  0.35650632  0.13113430  0.40570520    -0.30300
H219        H  0.36640213  0.13700196  0.35168403     0.13900
H220        H  0.34343198  0.11860145  0.42445975     0.14500
C221        C  0.24294204  0.10740809  0.18002595    -0.15100
C222        C  0.25077890  0.08171000  0.19509804    -0.30300
H223        H  0.23551584  0.12538073  0.19680723     0.13900
H224        H  0.25945406  0.06397663  0.17892892     0.14500
C225        C  0.22168810  0.09000773  0.42229266    -0.15100
C226        C  0.24201897  0.09417657  0.44759416    -0.30300
H227        H  0.20141586  0.07891218  0.42864516     0.13900
H228        H  0.26259149  0.10428851  0.44023199     0.14500
C229        C  0.48211645  0.25358356  0.19910903    -0.15100
C230        C  0.49576136  0.22693448  0.19986344    -0.30300
H231        H  0.49497729  0.27374996  0.19820414     0.13900
H232        H  0.98752356  0.21481289  0.20094815     0.14500
C233        C  0.31191142  0.18961552  0.23886063    -0.15100
C234        C  0.32057571  0.16165645  0.24293794    -0.30300
H235        H  0.29346883  0.19765719  0.25391804     0.13900
H236        H  0.33825408  0.15308132  0.22698019     0.14500
C237        C  0.39152303  0.23797905  0.32016552    -0.15100
C238        C  0.39507429  0.25911100  0.34497124    -0.30300
H239        H  0.38213610  0.21683433  0.32774881     0.13900
H240        H  0.40547865  0.27989975  0.33806309     0.14500
C241        C  0.37498328  0.23935901  0.09179759    -0.15100
C242        C  0.40025328  0.23298198  0.07590606    -0.30300
H243        H  0.35674756  0.24647853  0.07564909     0.13900
H244        H  0.41832918  0.22464007  0.09137703     0.14500
C245        C  0.32306509  0.32471790  0.28697342    -0.15100
C246        C  0.29708457  0.31445760  0.29785429    -0.30300
H247        H  0.33169271  0.34532864  0.29748918     0.13900
H248        H  0.28909598  0.29331629  0.28811194     0.14500
C249        C  0.25373443  0.49125325  0.07613715    -0.15100
C250        C  0.22200096  0.00217325  0.07862638    -0.30300
H251        H  0.27291916  0.50525738  0.07771007     0.13900
H252        H  0.20771177  0.48957446  0.07306281     0.14500
C253        C  0.16374468  0.32372396  0.02271420    -0.15100
C254        C  0.19106257  0.31583923  0.03035882    -0.30300
H255        H  0.14542988  0.34357197  0.54284532     0.13900
H256        H  0.19995033  0.29582825  0.01891594     0.14500
C257        C  0.32390787  0.31126625  0.47809501    -0.15100
C258        C  0.32539937  0.32640187  0.99922546    -0.30300
H259        H  0.32786640  0.33367224  0.46893738     0.13900
H260        H  0.34569194  0.33470703  0.98843857     0.14500
C261        C  0.36780657  0.35500804  0.14185490    -0.15100
C262        C  0.34580854  0.37416073  0.14694924    -0.30300
H263        H  0.37470902  0.35090275  0.11466853     0.13900
H264        H  0.33772638  0.37638736  0.17398574     0.14500
C265        C  0.23581238  0.39278508  0.45461751    -0.15100
C266        C  0.25656371  0.39835485  0.43039751    -0.30300
H267        H  0.21536922  0.38299314  0.44606102     0.13900
H268        H  0.27664544  0.40940727  0.43782781     0.14500
C269        C  0.24674389  0.38610747  0.20061635    -0.15100
C270        C  0.22516401  0.38970263  0.17680199    -0.30300
H271        H  0.26707808  0.37622979  0.19245762     0.13900
H272        H  0.20525421  0.40070695  0.18431409     0.14500
Fe273      Fe  0.21703713  0.39452513  0.56801473     1.65800
Fe274      Fe  0.25884371  0.33930874  0.59674290     1.73200
Fe275      Fe  0.28903208  0.39622315  0.55013893     1.54400
O276        O  0.27654653  0.41884653  0.00473635    -0.80400
O277        O  0.29398459  0.35330254  0.62602242    -0.78700
O278        O  0.23170047  0.39929300  0.00784503    -0.82900
O279        O  0.23095033  0.43708157  0.56385881    -0.77700
O280        O  0.30178228  0.35713919  0.52483018    -0.79500
O281        O  0.23326515  0.35478492  0.63801123    -0.82200
C282        C  0.25406504  0.45101112  0.57024739     0.98500
C283        C  0.25359171  0.40851021  0.99025193     1.06000
O284        O  0.25555554  0.37691766  0.57208991    -1.11200
O285        O  0.22545754  0.32090064  0.56702535    -0.73700
O286        O  0.19338516  0.35608749  0.57144388    -0.77100
O287        O  0.27850457  0.43793256  0.57184663    -0.77800
C288        C  0.20057694  0.33092015  0.56059347     0.97400
O289        O  0.21624567  0.39919940  0.62225752    -0.75800
O290        O  0.28489661  0.32081117  0.55921612    -0.81000
C291        C  0.31529745  0.37055995  0.62052704     1.00100
C292        C  0.29845575  0.32983080  0.53210982     1.06000
O293        O  0.31685235  0.38774241  0.59361219    -0.76600
C294        C  0.22356892  0.38033119  0.64559261     1.04300
Fe295      Fe  0.39393755  0.22459088  0.71361782     1.65800
Fe296      Fe  0.33832676  0.26714415  0.68584979     1.73200
Fe297      Fe  0.39424041  0.29857235  0.72957045     1.54400
O298        O  0.39695812  0.27847098  0.77846682    -0.80400
O299        O  0.34519741  0.31021730  0.67041196    -0.78700
O300        O  0.40028277  0.22989608  0.76806064    -0.82900
O301        O  0.43502105  0.23800864  0.70270187    -0.77700
O302        O  0.35405208  0.31484282  0.74719590    -0.79500
O303        O  0.35787482  0.25301146  0.63941274    -0.82200
C304        C  0.44934924  0.26128916  0.70836978     0.98500
C305        C  0.39850920  0.25190367  0.78909319     1.06000
O306        O  0.37597919  0.26333435  0.70948658    -1.11200
O307        O  0.32216910  0.22519031  0.69593745    -0.73700
O308        O  0.35660307  0.20430800  0.72756346    -0.77100
O309        O  0.43719685  0.28556394  0.71711772    -0.77800
C310        C  0.33090533  0.20538338  0.71675873     0.97400
O311        O  0.38823753  0.21771490  0.65884383    -0.75800
O312        O  0.31969245  0.28173271  0.73298841    -0.81000
C313        C  0.36687502  0.32710163  0.66627413     1.00100
C314        C  0.32886063  0.30341251  0.75168496     1.06000
O315        O  0.39098329  0.32223397  0.68171794    -0.76600
C316        C  0.37675848  0.23299871  0.63392314     1.04300
Fe317      Fe  0.21414792  0.08922580  0.81322835     1.65800
Fe318      Fe  0.26075917  0.13774993  0.84973397     1.73200
Fe319      Fe  0.28397581  0.08854407  0.78933146     1.54400
O320        O  0.27528993  0.04618300  0.80984536    -0.80400
O321        O  0.28904510  0.15817812  0.81522132    -0.78700
O322        O  0.22753275  0.04688723  0.80079063    -0.82900
O323        O  0.21457362  0.10199182  0.76055505    -0.77700
O324        O  0.31711381  0.09857062  0.82653585    -0.79500
O325        O  0.22880420  0.16184481  0.82422771    -0.82200
C326        C  0.23389259  0.09511678  0.73806482     0.98500
C327        C  0.25076590  0.03285721  0.80674897     1.06000
O328        O  0.25342785  0.10474094  0.81828935    -1.11200
O329        O  0.23369406  0.11935458  0.88807368    -0.73700
O330        O  0.21455143  0.07748795  0.86600628    -0.77100
O331        O  0.25606708  0.08026789  0.74698456    -0.77800
C332        C  0.22273903  0.09356770  0.89196525     0.97400
O333        O  0.19401773  0.12855289  0.82520670    -0.75800
O334        O  0.29497730  0.11665967  0.87417029    -0.81000
C335        C  0.29635302  0.15372341  0.78313581     1.00100
C336        C  0.31800688  0.11103145  0.85707098     1.05200
O337        O  0.29208404  0.12941136  0.76693506    -0.76600
C338        C  0.20322821  0.15388722  0.81658317     1.04300
Fe339      Fe  0.39668992  0.26131987  0.96526670     1.65800
Fe340      Fe  0.34224744  0.21817154  0.93616688     1.73200
Fe341      Fe  0.40021666  0.18841660  0.97849179     1.54400
O342        O  0.43734731  0.19970038  0.94868013    -0.80400
O343        O  0.32662131  0.19141137  0.97686179    -0.78700
O344        O  0.43830776  0.24649008  0.96623559    -0.82900
O345        O  0.38999808  0.26567353  0.51315563    -0.77700
O346        O  0.38460362  0.15770303  0.94091744    -0.79500
O347        O  0.32435057  0.25250936  0.96483610    -0.82200
C348        C  0.39567232  0.24508711  0.53520485     0.98500
C349        C  0.45058034  0.22448656  0.95241078     1.06000
O350        O  0.37962779  0.22216985  0.95897834    -1.11200
O351        O  0.35701329  0.24479184  0.89423233    -0.73700
O352        O  0.39941793  0.26582514  0.91103432    -0.77100
O353        O  0.40768790  0.22089372  0.52569879    -0.77800
C354        C  0.38065331  0.25876399  0.88752511     0.97400
O355        O  0.35959932  0.28535783  0.96503296    -0.75800
O356        O  0.35398412  0.18199657  0.90600512    -0.81000
C357        C  0.33415284  0.18660564  0.50436928     1.00100
C358        C  0.36575099  0.15822728  0.91608482     1.06000
O359        O  0.36103146  0.18225790  0.50864614    -0.76600
C360        C  0.33391771  0.27803332  0.97172049     1.04300
Fe361      Fe  0.25724938  0.09336364  0.56177252     1.65800
Fe362      Fe  0.20849431  0.14413946  0.58619256     1.73200
Fe363      Fe  0.18692480  0.08360490  0.53947830     1.54400
O364        O  0.21335025  0.07046392  0.00157234    -0.80400
O365        O  0.17284736  0.12811397  0.61296689    -0.78700
O366        O  0.25570716  0.09327051  0.01178691    -0.82900
O367        O  0.24694577  0.04920788  0.55837099    -0.77700
O368        O  0.17292274  0.11898219  0.51042849    -0.79500
O369        O  0.23306680  0.13133492  0.63060552    -0.82200
C370        C  0.22473666  0.03410107  0.56624971     0.98500
C371        C  0.23654294  0.08296515  0.99065255     1.06000
O372        O  0.21700290  0.10686159  0.56320565    -1.11200
O373        O  0.24139547  0.16577441  0.55945178    -0.73700
O374        O  0.27684089  0.13417969  0.56515032    -0.77100
O375        O  0.19949042  0.04538122  0.56661483    -0.77800
C376        C  0.26744171  0.15876122  0.55478784     0.97400
O377        O  0.25723763  0.09004874  0.61598890    -0.75800
O378        O  0.18319546  0.15844278  0.54419161    -0.81000
C379        C  0.15206210  0.11158209  0.60307476     1.00100
C380        C  0.17249535  0.14649431  0.51637686     1.06000
O381        O  0.15443034  0.09312779  0.57744036    -0.76600
C382        C  0.24709404  0.10795717  0.63882252     1.04300
Fe383      Fe  0.08318030  0.25795327  0.69520233     1.65800
Fe384      Fe  0.13944215  0.21351567  0.68507847     1.73200
Fe385      Fe  0.07879977  0.18824425  0.72584050     1.54400
O386        O  0.07117889  0.21901097  0.76664482    -0.80400
O387        O  0.13084670  0.17207188  0.66470233    -0.78700
O388        O  0.08885526  0.26332918  0.74934334    -0.82900
O389        O  0.04073982  0.24626022  0.70364908    -0.77700
O390        O  0.11409697  0.17481395  0.75547963    -0.79500
O391        O  0.12601599  0.23115631  0.63584887    -0.82200
C392        C  0.02639134  0.22272359  0.70010010     0.98500
C393        C  0.08298424  0.24424561  0.77344269     1.06000
O394        O  0.10019513  0.21889151  0.70121031    -1.11200
O395        O  0.15316966  0.25315302  0.70719787    -0.73700
O396        O  0.12041322  0.28136085  0.68391819    -0.77100
O397        O  0.03905318  0.19778981  0.70023114    -0.77800
C398        C  0.14319099  0.27854291  0.70154475     0.97400
O399        O  0.08043349  0.24865395  0.64204465    -0.75800
O400        O  0.15405418  0.19500806  0.73247219    -0.81000
C401        C  0.11176897  0.15195986  0.66858747     1.00100
C402        C  0.14118496  0.17968968  0.75608534     1.06000
O403        O  0.08894336  0.15533821  0.68767877    -0.76600
C404        C  0.10151325  0.23944556  0.62295768     1.04300
Fe405      Fe  0.09155337  0.22136445  0.94951297     1.65800
Fe406      Fe  0.14094214  0.27332959  0.92554823     1.73200
Fe407      Fe  0.08263370  0.29116826  0.97589183     1.54400
O408        O  0.04379025  0.27780239  0.95207048    -0.80400
O409        O  0.15713979  0.29682702  0.96893577    -0.78700
O410        O  0.04801932  0.22962893  0.95890664    -0.82900
O411        O  0.08439872  0.22888336  0.51013994    -0.77700
O412        O  0.08809852  0.32359373  0.93741147    -0.79500
O413        O  0.16220865  0.23836022  0.94924962    -0.82200
C414        C  0.07244538  0.24887044  0.52875801     0.98500
C415        C  0.03252161  0.25215047  0.95386699     1.06000
O416        O  0.10484579  0.26266522  0.94946359    -1.11200
O417        O  0.12503798  0.25046173  0.87993201    -0.73700
O418        O  0.08502574  0.22445694  0.89593384    -0.77100
O419        O  0.05977463  0.27088878  0.51486152    -0.77800
C420        C  0.10181790  0.23559739  0.87251936     0.97400
O421        O  0.13104680  0.20298809  0.93914479    -0.75800
O422        O  0.12589541  0.31218064  0.90302423    -0.81000
C423        C  0.13578927  0.31036535  0.50169336     1.00100
C424        C  0.10611038  0.32973763  0.91270381     1.06000
O425        O  0.10846433  0.31047836  0.50600669    -0.76600
C426        C  0.15456461  0.21178150  0.95231145     1.04300
Fe427      Fe  0.25529660  0.38634611  0.82218405     1.65800
Fe428      Fe  0.20577234  0.33498970  0.84709804     1.73200
Fe429      Fe  0.18678168  0.39208895  0.79370148     1.54400
O430        O  0.19675717  0.43290343  0.81818889    -0.80400
O431        O  0.18088676  0.31823651  0.80726641    -0.78700
O432        O  0.24473183  0.43016894  0.81550222    -0.82900
O433        O  0.25694717  0.37937953  0.76752630    -0.77700
O434        O  0.15425657  0.38403292  0.83032545    -0.79500
O435        O  0.23966680  0.31370510  0.82061787    -0.82200
C436        C  0.23832464  0.38819252  0.74490378     0.98500
C437        C  0.22187617  0.44513459  0.81905223     1.06000
O438        O  0.21529467  0.37164345  0.82209255    -1.11200
O439        O  0.23030774  0.34892696  0.89045468    -0.73700
O440        O  0.25213563  0.39195497  0.87660039    -0.77100
O441        O  0.21580578  0.40205418  0.75412447    -0.77800
C442        C  0.24236224  0.37334199  0.89917454     0.97400
O443        O  0.27443272  0.34599132  0.82922510    -0.75800
O444        O  0.16828913  0.35176817  0.87175994    -0.81000
C445        C  0.17440472  0.32635134  0.77614224     1.00100
C446        C  0.14949707  0.36921112  0.85852501     1.06000
O447        O  0.17641067  0.35311432  0.76572410    -0.76600
C448        C  0.26553441  0.32218623  0.81558255     1.04300
C449        C  0.10284147  0.35910534  0.89601829    -0.15100
C450        C  0.12095626  0.37535589  0.87539533    -0.30300
H451        H  0.08278574  0.37011469  0.90313936     0.13900
H452        H  0.11206063  0.39653658  0.86744055     0.14500
C453        C  0.15600016  0.30478616  0.71889940    -0.15100
C454        C  0.16484796  0.30216675  0.75263462    -0.30300
H455        H  0.15428007  0.32635621  0.70653655     0.13900
H456        H  0.16437594  0.28034182  0.76474464     0.14500
C457        C  0.09124891  0.25126274  0.81066901    -0.15100
C458        C  0.09371650  0.22981485  0.83520757    -0.30300
H459        H  0.09725116  0.27380801  0.81747239     0.13900
H460        H  0.08716742  0.20739067  0.82859981     0.14500
C461        C  0.07378190  0.24738618  0.56769022    -0.15100
C462        C  0.09792799  0.23814047  0.58407094    -0.30300
H463        H  0.05634189  0.25726152  0.58289443     0.13900
H464        H  0.11593761  0.22995217  0.56835113     0.14500
C465        C  0.17190301  0.19158967  0.97441719    -0.15100
C466        C  0.15788442  0.16507621  0.49017661    -0.30300
H467        H  0.19060479  0.20058800  0.98842993     0.13900
H468        H  0.14027727  0.15523016  0.47487310     0.14500
C469        C  0.11987797  0.12254184  0.65407502    -0.15100
C470        C  0.12311272  0.11809694  0.61879638    -0.30300
H471        H  0.13467437  0.11069036  0.67136571     0.13900
H472        H  0.10851048  0.12965009  0.60098483     0.14500
C473        C  0.48179493  0.22829763  0.94404782    -0.15100
C474        C  0.49447478  0.25566795  0.94347261    -0.30300
H475        H  0.49500262  0.20858858  0.94286266     0.13900
H476        H  0.48113399  0.27531281  0.94318838     0.14500
C477        C  0.31490881  0.17220077  0.53041259    -0.15100
C478        C  0.28684901  0.17881496  0.53476423    -0.30300
H479        H  0.32423141  0.15424599  0.54570340     0.13900
H480        H  0.27748992  0.19736520  0.52063693     0.14500
C481        C  0.24877494  0.99998716  0.80861812    -0.15100
C482        C  0.22520504  0.47792161  0.82223407    -0.30300
H483        H  0.26900377  0.98790353  0.80972007     0.13900
H484        H  0.20570386  0.49103762  0.81970966     0.14500
C485        C  0.18477438  0.17349469  0.79469766    -0.15100
C486        C  0.15790710  0.16519463  0.78471049    -0.30300
H487        H  0.19450137  0.19326705  0.78340668     0.13900
H488        H  0.14798106  0.14590867  0.79694713     0.14500
C489        C  0.34549050  0.12589594  0.86841718    -0.15100
C490        C  0.35298677  0.12995565  0.90272559    -0.30300
H491        H  0.35600968  0.13949853  0.84836596     0.13900
H492        H  0.34335826  0.11565436  0.92272536     0.14500
C493        C  0.25136773  0.10043621  0.67648162    -0.15100
C494        C  0.23040877  0.10458917  0.70075226    -0.30300
H495        H  0.27082275  0.08842168  0.68359928     0.13900
H496        H  0.21046917  0.11557095  0.69316127     0.14500
C497        C  0.21970245  0.08216257  0.92830188    -0.15100
C498        C  0.24077300  0.08743894  0.95231684    -0.30300
H499        H  0.20020876  0.06999536  0.93544201     0.13900
H500        H  0.26050094  0.09874321  0.94402917     0.14500
C501        C  0.48159791  0.25899830  0.70681414    -0.15100
C502        C  0.49549611  0.23247609  0.70468894    -0.30300
H503        H  0.49412303  0.27914397  0.71073689     0.13900
H504        H  0.98119819  0.20507202  0.69831104     0.14500
C505        C  0.31078017  0.18325381  0.73083926    -0.15100
C506        C  0.31229476  0.17744907  0.76572164    -0.30300
H507        H  0.29537445  0.17201230  0.71353823     0.13900
H508        H  0.32608498  0.19103742  0.78275585     0.14500
C509        C  0.39637697  0.24605061  0.82758890    -0.15100
C510        C  0.38678690  0.26660147  0.85050644    -0.30300
H511        H  0.40005076  0.22367302  0.83693441     0.13900
H512        H  0.38243176  0.28900587  0.84185839     0.14500
C513        C  0.38662291  0.22766649  0.59701844    -0.15100
C514        C  0.38737468  0.24963883  0.57283720    -0.30300
H515        H  0.39473164  0.20595151  0.59017443     0.13900
H516        H  0.37982944  0.27143893  0.58034090     0.14500
C517        C  0.30992801  0.31714520  0.77904770    -0.15100
C518        C  0.28509737  0.30509211  0.79175058    -0.30300
H519        H  0.31687859  0.33859926  0.78899772     0.13900
H520        H  0.27780126  0.28372277  0.78195908     0.14500
C521        C  0.25149560  0.48365304  0.57427502    -0.15100
C522        C  0.22868422  0.00210736  0.57313702    -0.30300
H523        H  0.27124204  0.49682429  0.57359939     0.13900
H524        H  0.20545992  0.48381598  0.57731428     0.14500
C525        C  0.15388988  0.32418821  0.52950042    -0.15100
C526        C  0.18023859  0.31377204  0.53812420    -0.30300
H527        H  0.15432100  0.34282757  0.03567643     0.13900
H528        H  0.18798793  0.29362200  0.52579145     0.14500
C529        C  0.31542538  0.29933248  0.99030065    -0.15100
C530        C  0.31021837  0.30649001  0.50895920    -0.30300
H531        H  0.29457732  0.29162556  0.00011355     0.13900
H532        H  0.30801354  0.28390747  0.51849982     0.14500
C533        C  0.36231373  0.35246999  0.64198267    -0.15100
C534        C  0.33873968  0.36942097  0.64747890    -0.30300
H535        H  0.37009594  0.34958247  0.61493590     0.13900
H536        H  0.33084406  0.37054089  0.67472610     0.14500
C537        C  0.25322675  0.40526171  0.95137304    -0.15100
C538        C  0.24387481  0.37963524  0.93747376    -0.30300
H539        H  0.26278053  0.42227520  0.93467864     0.13900
H540        H  0.23589690  0.36246152  0.95524337     0.14500
C541        C  0.24193874  0.38152940  0.70684056    -0.15100
C542        C  0.22112150  0.38856770  0.68309355    -0.30300
H543        H  0.26088352  0.36924941  0.69843189     0.13900
H544        H  0.20275753  0.40196573  0.69085986     0.14500
Fe545      Fe  0.21745668  0.89850092  0.06522332     1.65800
Fe546      Fe  0.26270716  0.84138351  0.08311246     1.73200
Fe547      Fe  0.29022867  0.90445303  0.04871637     1.54400
O548        O  0.27848128  0.90863566  0.49861127    -0.80400
O549        O  0.30276002  0.85075887  0.10541317    -0.78700
O550        O  0.23027929  0.90678122  0.50689042    -0.82900
O551        O  0.22882497  0.94095337  0.07529063    -0.77700
O552        O  0.30973302  0.86798410  0.02599149    -0.79500
O553        O  0.24402939  0.85382492  0.13107526    -0.82200
C554        C  0.25145762  0.95643361  0.07420403     0.98500
C555        C  0.25254393  0.90801238  0.48699015     1.06000
O556        O  0.25675886  0.88171948  0.06602403    -1.11200
O557        O  0.22508109  0.82328504  0.06218665    -0.73700
O558        O  0.19594738  0.86078543  0.05347018    -0.77100
O559        O  0.27611328  0.94549707  0.06733938    -0.77800
C560        C  0.20143465  0.83379335  0.05144253     0.97400
O561        O  0.21398441  0.89170143  0.11919438    -0.75800
O562        O  0.28179231  0.82861688  0.03621799    -0.81000
C563        C  0.31900338  0.87303603  0.11067023     1.00100
C564        C  0.30241397  0.84139685  0.01999740     1.06000
O565        O  0.31448168  0.89786188  0.09554549    -0.76600
C566        C  0.22706282  0.87457808  0.14068186     1.04300
Fe567      Fe  0.39537593  0.72374168  0.21457737     1.65800
Fe568      Fe  0.34179471  0.76630207  0.18372896     1.73200
Fe569      Fe  0.40036895  0.79849891  0.22006746     1.54400
O570        O  0.40715215  0.78238879  0.27088925    -0.80400
O571        O  0.34725875  0.80925657  0.16620484    -0.78700
O572        O  0.40361095  0.73312672  0.26762950    -0.82900
O573        O  0.43646065  0.73413952  0.19963857    -0.77700
O574        O  0.36167205  0.81587367  0.24036709    -0.79500
O575        O  0.36082040  0.75023347  0.13826104    -0.82200
C576        C  0.45163296  0.75730583  0.19748962     0.98500
C577        C  0.40597446  0.75704554  0.28522778     1.06000
O578        O  0.37974820  0.76278956  0.20607011    -1.11200
O579        O  0.32554448  0.72441295  0.19525830    -0.73700
O580        O  0.35748591  0.70730893  0.23311226    -0.77100
O581        O  0.44117759  0.78302195  0.20290548    -0.77800
C582        C  0.33267489  0.70671330  0.21950740     0.97400
O583        O  0.38713810  0.71287387  0.16118924    -0.75800
O584        O  0.32581529  0.78276050  0.23097547    -0.81000
C585        C  0.36896300  0.82495574  0.15809806     1.00100
C586        C  0.33662617  0.80495518  0.24750063     1.06000
O587        O  0.39398038  0.81937134  0.17065304    -0.76600
C588        C  0.37779902  0.72818714  0.13493563     1.04300
Fe589      Fe  0.21339897  0.59048803  0.31605804     1.65800
Fe590      Fe  0.26144657  0.63827085  0.35178465     1.73200
Fe591      Fe  0.28298414  0.58922976  0.29026968     1.54400
O592        O  0.27422487  0.54693658  0.31039122    -0.80400
O593        O  0.28955725  0.65845978  0.31683091    -0.78700
O594        O  0.22615038  0.54778514  0.30401641    -0.82900
O595        O  0.21303828  0.60279189  0.26314558    -0.77700
O596        O  0.31664272  0.59798934  0.32703206    -0.79500
O597        O  0.22930459  0.66290357  0.32714257    -0.82200
C598        C  0.23195818  0.59593018  0.24015236     0.98500
C599        C  0.24960804  0.53372467  0.30844336     1.06000
O600        O  0.25305061  0.60550938  0.32024244    -1.11200
O601        O  0.23480206  0.62023746  0.39091577    -0.73700
O602        O  0.21390551  0.57919890  0.36894851    -0.77100
O603        O  0.25446761  0.58143450  0.24851734    -0.77800
C604        C  0.22256214  0.59505212  0.39486222     0.97400
O605        O  0.19392493  0.63016803  0.32794143    -0.75800
O606        O  0.29600062  0.61676832  0.37540908    -0.81000
C607        C  0.29664715  0.65422749  0.28463606     1.00100
C608        C  0.31848691  0.60959888  0.35797606     1.05200
O609        O  0.29156981  0.63023173  0.26805804    -0.76600
C610        C  0.20349322  0.65546522  0.31977451     1.04300
Fe611      Fe  0.38885631  0.76099781  0.45398466     1.65800
Fe612      Fe  0.33559953  0.71366428  0.43306065     1.73200
Fe613      Fe  0.39365227  0.69012992  0.48053738     1.54400
O614        O  0.43323570  0.70108901  0.45535539    -0.80400
O615        O  0.31971818  0.68837405  0.47501608    -0.78700
O616        O  0.43166856  0.74971316  0.46079458    -0.82900
O617        O  0.39968489  0.75788607  0.01727381    -0.77700
O618        O  0.38292922  0.65689101  0.44280955    -0.79500
O619        O  0.31746759  0.74842334  0.45994529    -0.82200
C620        C  0.40070969  0.73593303  0.03814600     0.98500
C621        C  0.44582453  0.72635461  0.45571149     1.06000
O622        O  0.37297676  0.72080917  0.45517507    -1.11200
O623        O  0.34882393  0.73837241  0.38851689    -0.73700
O624        O  0.39332215  0.75680722  0.39964844    -0.77100
O625        O  0.40344413  0.70944630  0.02753167    -0.77800
C626        C  0.37339071  0.74856929  0.37812251     0.97400
O627        O  0.34991906  0.78208491  0.44695744    -0.75800
O628        O  0.34954063  0.67667109  0.40672595    -0.81000
C629        C  0.33363833  0.68018018  0.00036287     1.00100
C630        C  0.36414953  0.65483355  0.41764877     1.06000
O631        O  0.35991937  0.67182089  0.00019893    -0.76600
C632        C  0.32646383  0.77465236  0.46157229     1.04300
Fe633      Fe  0.25540835  0.59441979  0.06424549     1.65800
Fe634      Fe  0.20813002  0.64674781  0.08751567     1.73200
Fe635      Fe  0.18490495  0.58567338  0.04282550     1.54400
O636        O  0.21259471  0.56845756  0.50403423    -0.80400
O637        O  0.17151914  0.63260056  0.11376384    -0.78700
O638        O  0.25436563  0.59237953  0.51507865    -0.82900
O639        O  0.24489787  0.55066442  0.05954358    -0.77700
O640        O  0.16989464  0.62112914  0.01469524    -0.79500
O641        O  0.23179737  0.63301853  0.13248087    -0.82200
C642        C  0.22283807  0.53559179  0.06767552     0.98500
C643        C  0.23538104  0.58219362  0.49362388     1.06000
O644        O  0.21547894  0.60879341  0.06558113    -1.11200
O645        O  0.24201795  0.66685243  0.06062428    -0.73700
O646        O  0.27602379  0.63437870  0.06916003    -0.77100
O647        O  0.19770990  0.54700666  0.06890834    -0.77800
C648        C  0.26779299  0.65863741  0.05673415     0.97400
O649        O  0.25461583  0.59072096  0.11829200    -0.75800
O650        O  0.18362616  0.66145414  0.04495870    -0.81000
C651        C  0.15125491  0.61456344  0.10626621     1.00100
C652        C  0.17094479  0.64885061  0.01886374     1.06000
O653        O  0.15360355  0.59468955  0.08223234    -0.76600
C654        C  0.24487870  0.60906696  0.14092246     1.04300
Fe655      Fe  0.08621916  0.76197503  0.20117013     1.65800
Fe656      Fe  0.14089590  0.71593713  0.18885803     1.73200
Fe657      Fe  0.07944072  0.69198997  0.22913004     1.54400
O658        O  0.06940618  0.72257617  0.26885986    -0.80400
O659        O  0.13114501  0.67550317  0.16668703    -0.78700
O660        O  0.09195725  0.76521375  0.25577040    -0.82900
O661        O  0.04354788  0.75058789  0.20856799    -0.77700
O662        O  0.11378321  0.67918519  0.26101563    -0.79500
O663        O  0.12808750  0.73548016  0.14015673    -0.82200
C664        C  0.02923836  0.72757075  0.20133110     0.98500
C665        C  0.08377330  0.74563101  0.27823373     1.06000
O666        O  0.10198750  0.72227688  0.20540673    -1.11200
O667        O  0.15611254  0.75415628  0.21275116    -0.73700
O668        O  0.12422043  0.78446971  0.19147248    -0.77100
O669        O  0.04156443  0.70244556  0.20026649    -0.77800
C670        C  0.14713425  0.78004922  0.20836194     0.97400
O671        O  0.08328974  0.75463574  0.14735427    -0.75800
O672        O  0.15454722  0.69571234  0.23568061    -0.81000
C673        C  0.11262460  0.65517194  0.17223824     1.00100
C674        C  0.14115933  0.68237693  0.26062626     1.06000
O675        O  0.09062274  0.65844468  0.19259776    -0.76600
C676        C  0.10380842  0.74493000  0.12768974     1.04300
Fe677      Fe  0.08344055  0.71980747  0.45495083     1.65800
Fe678      Fe  0.13593034  0.76661822  0.42956762     1.73200
Fe679      Fe  0.07991584  0.79138373  0.47926947     1.54400
O680        O  0.04025816  0.78143800  0.45362874    -0.80400
O681        O  0.15285869  0.79303332  0.47041733    -0.78700
O682        O  0.04103916  0.73283147  0.46126559    -0.82900
O683        O  0.08301654  0.73152591  0.01553958    -0.77700
O684        O  0.09294761  0.82499292  0.44291681    -0.79500
O685        O  0.15534216  0.73246595  0.45647081    -0.82200
C686        C  0.07172637  0.75212335  0.03374840     0.98500
C687        C  0.02723032  0.75639052  0.45559780     1.06000
O688        O  0.09959399  0.75984711  0.45398283    -1.11200
O689        O  0.12106873  0.74175521  0.38575499    -0.73700
O690        O  0.07820768  0.72148081  0.40082317    -0.77100
O691        O  0.05775333  0.77291953  0.01903386    -0.77800
C692        C  0.09636629  0.73040506  0.37767834     0.97400
O693        O  0.12221824  0.69804529  0.44901903    -0.75800
O694        O  0.12027665  0.80231451  0.40267157    -0.81000
C695        C  0.13423579  0.81058131  0.99991225     1.00100
C696        C  0.11054360  0.82564803  0.41653186     1.06000
O697        O  0.10734384  0.81027061  0.00705744    -0.76600
C698        C  0.14656761  0.70633307  0.46077273     1.04300
Fe699      Fe  0.26492508  0.89145080  0.31332517     1.65800
Fe700      Fe  0.21924836  0.84083351  0.34768246     1.73200
Fe701      Fe  0.19459018  0.89282803  0.29119160     1.54400
O702        O  0.20370225  0.93428471  0.31412328    -0.80400
O703        O  0.19231936  0.82076766  0.31087633    -0.78700
O704        O  0.25123908  0.93392012  0.30405637    -0.82900
O705        O  0.26364383  0.88091213  0.26009434    -0.77700
O706        O  0.16234156  0.88229487  0.32863555    -0.79500
O707        O  0.25181912  0.81847211  0.32104874    -0.82200
C708        C  0.24375563  0.88823917  0.23858699     0.98500
C709        C  0.22824630  0.94759408  0.31184944     1.06000
O710        O  0.22572524  0.87543413  0.31846746    -1.11200
O711        O  0.24621071  0.85860544  0.38732406    -0.73700
O712        O  0.26601147  0.90072048  0.36649454    -0.77100
O713        O  0.22168030  0.90261277  0.24876716    -0.77800
C714        C  0.25938718  0.88331172  0.39172340     0.97400
O715        O  0.28588679  0.85240444  0.32246556    -0.75800
O716        O  0.18375045  0.85907384  0.37373338    -0.81000
C717        C  0.18449451  0.82688571  0.27930718     1.00100
C718        C  0.16108262  0.86864880  0.35829959     1.06000
O719        O  0.18582084  0.85284473  0.26636106    -0.76600
C720        C  0.27704086  0.82718478  0.31312414     1.04300
C721        C  0.12484188  0.85374132  0.40514713    -0.15100
C722        C  0.13202259  0.85821416  0.37076945    -0.30300
H723        H  0.13684023  0.86556069  0.42565321     0.13900
H724        H  0.11902771  0.84713607  0.35054954     0.14500
C725        C  0.16189266  0.80527883  0.22526144    -0.15100
C726        C  0.17360441  0.80210122  0.25766595    -0.30300
H727        H  0.15954215  0.82709543  0.21365585     0.13900
H728        H  0.17399267  0.78031029  0.26980776     0.14500
C729        C  0.09190704  0.74924886  0.31617716    -0.15100
C730        C  0.08802247  0.72728579  0.33995479    -0.30300
H731        H  0.10270205  0.76955064  0.32435898     0.13900
H732        H  0.07633304  0.70738185  0.33227565     0.14500
C733        C  0.07484086  0.75244536  0.07280299    -0.15100
C734        C  0.09958306  0.74391410  0.08865768    -0.30300
H735        H  0.05762674  0.76224492  0.08844670     0.13900
H736        H  0.11723103  0.73556553  0.07246256     0.14500
C737        C  0.16428325  0.68600481  0.48214427    -0.15100
C738        C  0.15538123  0.66674530  0.99277912    -0.30300
H739        H  0.18383543  0.69473781  0.49458281     0.13900
H740        H  0.13676548  0.65663422  0.97967889     0.14500
C741        C  0.12048363  0.62562812  0.15814144    -0.15100
C742        C  0.12266752  0.62069031  0.12290982    -0.30300
H743        H  0.13579568  0.61409857  0.17507302     0.13900
H744        H  0.10758430  0.63208086  0.10555437     0.14500
C745        C  0.47803583  0.72911647  0.45168100    -0.15100
C746        C  0.49232577  0.75566579  0.44967805    -0.30300
H747        H  0.49040337  0.70881662  0.45213456     0.13900
H748        H  0.47997776  0.77596527  0.44865167     0.14500
C749        C  0.31433568  0.66611656  0.02659018    -0.15100
C750        C  0.28815835  0.67669265  0.03549028    -0.30300
H751        H  0.32189580  0.64568821  0.03843003     0.13900
H752        H  0.28059429  0.69730355  0.02415646     0.14500
C753        C  0.24798745  0.50089643  0.31008186    -0.15100
C754        C  0.23063110  0.98017805  0.31616213    -0.30300
H755        H  0.26844954  0.48919009  0.31025691     0.13900
H756        H  0.21076077  0.99282270  0.31472654     0.14500
C757        C  0.18507802  0.67558241  0.29849544    -0.15100
C758        C  0.15768836  0.66812414  0.28962689    -0.30300
H759        H  0.19521328  0.69480982  0.28640057     0.13900
H760        H  0.14730009  0.64952856  0.30279314     0.14500
C761        C  0.34722898  0.62138667  0.36983434    -0.15100
C762        C  0.35450352  0.62537508  0.40428090    -0.30300
H763        H  0.35849047  0.63466646  0.35006997     0.13900
H764        H  0.34423705  0.61132579  0.42405679     0.14500
C765        C  0.24893808  0.60152439  0.17856492    -0.15100
C766        C  0.22784889  0.60512213  0.20280915    -0.30300
H767        H  0.26867049  0.58999812  0.18571670     0.13900
H768        H  0.20763636  0.61560364  0.19526726     0.14500
C769        C  0.21865862  0.58383122  0.43119729    -0.15100
C770        C  0.23965632  0.58803310  0.45554429    -0.30300
H771        H  0.19883412  0.57204261  0.43786424     0.13900
H772        H  0.25967232  0.59907617  0.44779497     0.14500
C773        C  0.48313238  0.75347877  0.19073124    -0.15100
C774        C  0.49598021  0.72642959  0.19129280    -0.30300
H775        H  0.49642012  0.77335812  0.18968342     0.13900
H776        H  0.98447944  0.71063169  0.19336834     0.14500
C777        C  0.31198939  0.68473727  0.23319326    -0.15100
C778        C  0.31344870  0.67774583  0.26779323    -0.30300
H779        H  0.29613933  0.67445105  0.21563435     0.13900
H780        H  0.32773533  0.69034900  0.28529097     0.14500
C781        C  0.40420849  0.75570713  0.32428379    -0.15100
C782        C  0.37823998  0.75038251  0.33933256    -0.30300
H783        H  0.42318747  0.76080980  0.34033510     0.13900
H784        H  0.35967496  0.74599572  0.32215805     0.14500
C785        C  0.38768855  0.72039704  0.09901145    -0.15100
C786        C  0.39597683  0.74171890  0.07622252    -0.30300
H787        H  0.38835769  0.69728574  0.09138650     0.13900
H788        H  0.39572380  0.76462838  0.08488744     0.14500
C789        C  0.31963872  0.82006602  0.27518337    -0.15100
C790        C  0.29573153  0.80856161  0.29050169    -0.30300
H791        H  0.32696906  0.84206296  0.28265076     0.13900
H792        H  0.28824824  0.78657368  0.28327642     0.14500
C793        C  0.24832234  0.98876276  0.07842369    -0.15100
C794        C  0.22695368  0.50355059  0.07357421    -0.30300
H795        H  0.26802362  0.00199419  0.07682945     0.13900
H796        H  0.20221780  0.98905759  0.07994411     0.14500
C797        C  0.15357075  0.82497878  0.02559691    -0.15100
C798        C  0.18014810  0.81473124  0.03313864    -0.30300
H799        H  0.15371382  0.84176492  0.53292908     0.13900
H800        H  0.18712029  0.79359132  0.02265003     0.14500
C801        C  0.31010110  0.79608660  0.48273952    -0.15100
C802        C  0.32027312  0.82456720  0.99507385    -0.30300
H803        H  0.28910236  0.78908014  0.49284980     0.13900
H804        H  0.34234943  0.83235634  0.99103827     0.14500
C805        C  0.36369800  0.84884335  0.13170456    -0.15100
C806        C  0.34244814  0.86886194  0.13739125    -0.30300
H807        H  0.36961412  0.84371536  0.10442199     0.13900
H808        H  0.33607892  0.87310109  0.16475133     0.14500
C809        C  0.24793327  0.90606392  0.44843151    -0.15100
C810        C  0.26717752  0.89203924  0.42785984    -0.30300
H811        H  0.22685867  0.91189805  0.43763813     0.13900
H812        H  0.28747532  0.88403788  0.43876822     0.14500
C813        C  0.24639837  0.87979678  0.20094629    -0.15100
C814        C  0.22355557  0.88066414  0.17872348    -0.30300
H815        H  0.26724069  0.87199461  0.19148733     0.13900
H816        H  0.20291600  0.88926067  0.18776547     0.14500
Fe817      Fe  0.22444342  0.89901429  0.56056072     1.65800
Fe818      Fe  0.26861165  0.84281071  0.58503323     1.73200
Fe819      Fe  0.29791315  0.90398044  0.54764912     1.54400
O820        O  0.26863219  0.90992980  0.00058061    -0.80400
O821        O  0.30835673  0.85257460  0.60753148    -0.78700
O822        O  0.22080860  0.90484646  0.01114201    -0.82900
O823        O  0.23606927  0.94113524  0.57283871    -0.77700
O824        O  0.31700465  0.86600056  0.52670129    -0.79500
O825        O  0.24944490  0.85728669  0.63127951    -0.82200
C826        C  0.25867619  0.95673481  0.57074920     0.98500
C827        C  0.24234284  0.90725322  0.99015241     1.06000
O828        O  0.26356923  0.88228770  0.56469288    -1.11200
O829        O  0.23101245  0.82389386  0.56522409    -0.73700
O830        O  0.20448311  0.86072423  0.54567950    -0.77100
O831        O  0.28336915  0.94579148  0.56369865    -0.77800
C832        C  0.20911735  0.83355258  0.54901570     0.97400
O833        O  0.21738996  0.89182388  0.61427546    -0.75800
O834        O  0.28763477  0.82819651  0.53946390    -0.81000
C835        C  0.32436920  0.87503401  0.61240553     1.00100
C836        C  0.30793829  0.83973216  0.52146955     1.06000
O837        O  0.32049324  0.89915830  0.59571094    -0.76600
C838        C  0.23052432  0.87690158  0.63802697     1.04300
Fe839      Fe  0.39215970  0.72348773  0.70855708     1.65800
Fe840      Fe  0.33663939  0.76905262  0.68599690     1.73200
Fe841      Fe  0.39565413  0.79739172  0.72724475     1.54400
O842        O  0.39824812  0.77546163  0.77525113    -0.80400
O843        O  0.34675645  0.81061351  0.66637136    -0.78700
O844        O  0.39741215  0.72686850  0.76298982    -0.82900
O845        O  0.43371313  0.73599550  0.69934647    -0.77700
O846        O  0.35793230  0.81650669  0.74673006    -0.79500
O847        O  0.35238918  0.75142264  0.63828360    -0.82200
C848        C  0.44851802  0.75907867  0.70372779     0.98500
C849        C  0.39729191  0.74845583  0.78473002     1.06000
O850        O  0.37508461  0.76320844  0.70700405    -1.11200
O851        O  0.31824746  0.72953236  0.70326376    -0.73700
O852        O  0.35494600  0.70179196  0.71952453    -0.77100
O853        O  0.43720111  0.78350555  0.71264598    -0.77800
C854        C  0.32825777  0.70628095  0.71698412     0.97400
O855        O  0.38690941  0.71902751  0.65416129    -0.75800
O856        O  0.32069734  0.78710062  0.73281537    -0.81000
C857        C  0.36917519  0.82676585  0.66308138     1.00100
C858        C  0.33193868  0.80780022  0.75121416     1.06000
O859        O  0.39247686  0.82188486  0.68029223    -0.76600
C860        C  0.37233432  0.73289389  0.63075772     1.04300
Fe861      Fe  0.22130768  0.58267375  0.80908634     1.65800
Fe862      Fe  0.26724986  0.63604789  0.83767487     1.73200
Fe863      Fe  0.29322872  0.57498991  0.79538674     1.54400
O864        O  0.28045702  0.53668803  0.82338366    -0.80400
O865        O  0.29228392  0.65085584  0.79555109    -0.78700
O866        O  0.23327849  0.53887932  0.81128230    -0.82900
O867        O  0.22719713  0.58450652  0.75478026    -0.77700
O868        O  0.32433563  0.58855942  0.83355878    -0.79500
O869        O  0.23375192  0.65671262  0.81100749    -0.82200
C870        C  0.24785756  0.57342957  0.73704632     0.98500
C871        C  0.25544230  0.52434576  0.82036545     1.06000
O872        O  0.26096466  0.59780926  0.81505010    -1.11200
O873        O  0.24238691  0.62189126  0.88098559    -0.73700
O874        O  0.21592186  0.58233615  0.86361758    -0.77100
O875        O  0.26893161  0.56047613  0.75194748    -0.77800
C876        C  0.22610368  0.59950045  0.88759322     0.97400
O877        O  0.20025523  0.62234240  0.80459654    -0.75800
O878        O  0.30347496  0.62341615  0.86623047    -0.81000
C879        C  0.30451200  0.63859570  0.76901661     1.00100
C880        C  0.32557961  0.60880957  0.85720116     1.05200
O881        O  0.30629738  0.61074570  0.76501770    -0.76600
C882        C  0.20884537  0.64862973  0.80102734     1.04300
Fe883      Fe  0.39692823  0.76184816  0.96293841     1.65800
Fe884      Fe  0.34242612  0.71684155  0.93348845     1.73200
Fe885      Fe  0.39880989  0.68741318  0.97956653     1.54400
O886        O  0.44099235  0.70032320  0.96308144    -0.80400
O887        O  0.32360296  0.69909972  0.97862824    -0.78700
O888        O  0.43898323  0.74908313  0.95665644    -0.82900
O889        O  0.38271391  0.76302083  0.50826674    -0.77700
O890        O  0.39304151  0.65914233  0.93533077    -0.79500
O891        O  0.32393612  0.75626467  0.94816555    -0.82200
C892        C  0.38931893  0.74350918  0.53125250     0.98500
C893        C  0.45322937  0.72545934  0.95808554     1.06000
O894        O  0.37975474  0.72192724  0.95818925    -1.11200
O895        O  0.36124516  0.73471254  0.88823973    -0.73700
O896        O  0.39395101  0.76802306  0.90856225    -0.77100
O897        O  0.40186878  0.71933433  0.52282316    -0.77800
C898        C  0.38066592  0.75461386  0.88347380     0.97400
O899        O  0.35898966  0.78270200  0.97236582    -0.75800
O900        O  0.35058229  0.67489862  0.91522539    -0.81000
C901        C  0.33081207  0.67695820  0.50279291     1.00100
C902        C  0.36957456  0.65506989  0.91778225     1.06000
O903        O  0.35780191  0.67690621  0.50885135    -0.76600
C904        C  0.33268033  0.77850258  0.96527264     1.04300
Fe905      Fe  0.25367699  0.58901578  0.56935775     1.65800
Fe906      Fe  0.20567989  0.64145056  0.58772400     1.73200
Fe907      Fe  0.18394916  0.57908148  0.54516159     1.54400
O908        O  0.21175783  0.57752260  0.99879657    -0.80400
O909        O  0.17068203  0.62655348  0.61619669    -0.78700
O910        O  0.25460346  0.59931703  0.01005092    -0.82900
O911        O  0.24364150  0.54487448  0.56551455    -0.77700
O912        O  0.17028317  0.61327098  0.51347216    -0.79500
O913        O  0.23106309  0.63140946  0.63249983    -0.82200
C914        C  0.22133809  0.52960123  0.57220296     0.98500
C915        C  0.23515802  0.59026980  0.98849516     1.06000
O916        O  0.21372371  0.60294341  0.56801621    -1.11200
O917        O  0.23839042  0.66055956  0.55855892    -0.73700
O918        O  0.27310728  0.63018400  0.57281791    -0.77100
O919        O  0.19621391  0.54128242  0.57384703    -0.77800
C920        C  0.26451558  0.65306190  0.55697981     0.97400
O921        O  0.25027156  0.58657941  0.62366933    -0.75800
O922        O  0.17975384  0.65394158  0.54524044    -0.81000
C923        C  0.14930386  0.61074270  0.60652848     1.00100
C924        C  0.16943966  0.64097817  0.51787682     1.06000
O925        O  0.15117724  0.59108596  0.58202502    -0.76600
C926        C  0.24112613  0.60694485  0.64413370     1.04300
Fe927      Fe  0.08194720  0.76200922  0.70761498     1.65800
Fe928      Fe  0.13548487  0.71717913  0.68317549     1.73200
Fe929      Fe  0.07870313  0.69051184  0.73064376     1.54400
O930        O  0.06908661  0.71869793  0.77310273    -0.80400
O931        O  0.12362985  0.67791426  0.65853592    -0.78700
O932        O  0.09009701  0.76234052  0.76135988    -0.82900
O933        O  0.04058968  0.74811997  0.71695348    -0.77700
O934        O  0.11540964  0.67854026  0.75837972    -0.79500
O935        O  0.11813510  0.73948688  0.63840951    -0.82200
C936        C  0.02702171  0.72538091  0.70695584     0.98500
C937        C  0.08198219  0.74238633  0.78314564     1.06000
O938        O  0.09867302  0.72243228  0.70630455    -1.11200
O939        O  0.15318950  0.75442339  0.70792989    -0.73700
O940        O  0.11873391  0.78609527  0.69744430    -0.77100
O941        O  0.03961056  0.70048362  0.70454681    -0.77800
C942        C  0.14374237  0.78050424  0.70826282     0.97400
O943        O  0.07535259  0.75974299  0.65408410    -0.75800
O944        O  0.15333176  0.69377403  0.72586138    -0.81000
C945        C  0.10828345  0.65601812  0.66845783     1.00100
C946        C  0.14251050  0.68041712  0.75272482     1.06000
O947        O  0.08920055  0.65794189  0.69293339    -0.76600
C948        C  0.09355569  0.75133187  0.63079830     1.04300
Fe949      Fe  0.07807221  0.72638709  0.96120121     1.65800
Fe950      Fe  0.12959227  0.77250543  0.93108616     1.73200
Fe951      Fe  0.07203862  0.79891313  0.97660944     1.54400
O952        O  0.03454350  0.78718260  0.94782994    -0.80400
O953        O  0.14490397  0.80030768  0.97114633    -0.78700
O954        O  0.03542874  0.73965591  0.96280771    -0.82900
O955        O  0.08979487  0.71941286  0.50901405    -0.77700
O956        O  0.08682855  0.83108468  0.93982043    -0.79500
O957        O  0.15027424  0.74014231  0.95946366    -0.82200
C958        C  0.08195184  0.73913789  0.53098899     0.98500
C959        C  0.02184568  0.76212366  0.95183981     1.06000
O960        O  0.09320919  0.76628680  0.95541591    -1.11200
O961        O  0.11569240  0.74505439  0.88966862    -0.73700
O962        O  0.07447101  0.72236812  0.90695470    -0.77100
O963        O  0.06932943  0.76281460  0.52110787    -0.77800
C964        C  0.09208632  0.73102865  0.88302553     0.97400
O965        O  0.11710334  0.70499970  0.96030745    -0.75800
O966        O  0.11374855  0.80665780  0.90110779    -0.81000
C967        C  0.14286144  0.80392633  0.49919057     1.00100
C968        C  0.10413609  0.83062767  0.91334394     1.06000
O969        O  0.11631604  0.80268957  0.50765924    -0.76600
C970        C  0.14237661  0.71425423  0.96693412     1.04300
Fe971      Fe  0.25908293  0.89621243  0.81290764     1.65800
Fe972      Fe  0.21269914  0.84621728  0.84749481     1.73200
Fe973      Fe  0.18929511  0.89558777  0.78698368     1.54400
O974        O  0.19697927  0.93826047  0.80769366    -0.80400
O975        O  0.18727523  0.82420289  0.81039886    -0.78700
O976        O  0.24504072  0.93835336  0.80156597    -0.82900
O977        O  0.25956558  0.88450580  0.76018106    -0.77700
O978        O  0.15583948  0.88562192  0.82330191    -0.79500
O979        O  0.24633390  0.82333888  0.82356055    -0.82200
C980        C  0.24055300  0.89099994  0.73718771     0.98500
C981        C  0.22139672  0.95197482  0.80601915     1.06000
O982        O  0.21982015  0.87985784  0.81685317    -1.11200
O983        O  0.23751258  0.86611111  0.88785210    -0.73700
O984        O  0.25907781  0.90681879  0.86578971    -0.77100
O985        O  0.21746604  0.90452668  0.74541177    -0.77800
C986        C  0.25091728  0.89079051  0.89165162     0.97400
O987        O  0.28020377  0.85750314  0.82385459    -0.75800
O988        O  0.17642477  0.86495156  0.87067687    -0.81000
C989        C  0.18049323  0.82895021  0.77809611     1.00100
C990        C  0.15402610  0.87309252  0.85366289     1.06000
O991        O  0.18209736  0.85444093  0.76384692    -0.76600
C992        C  0.27153250  0.83199366  0.81537646     1.04300
C993        C  0.11818419  0.85837312  0.90046046    -0.15100
C994        C  0.12507077  0.86227259  0.86591016    -0.30300
H995        H  0.12999601  0.87100517  0.92042428     0.13900
H996        H  0.11236228  0.85048500  0.84600784     0.14500
C997        C  0.16068037  0.80504781  0.72360486    -0.15100
C998        C  0.17007304  0.80324645  0.75732216    -0.30300
H999        H  0.16031436  0.82627991  0.71022147     0.13900
H1000       H  0.16827880  0.78225249  0.77118584     0.14500
C1001       C  0.08836095  0.74685303  0.82117214    -0.15100
C1002       C  0.08419023  0.72562518  0.84568051    -0.30300
H1003       H  0.09824159  0.76772051  0.82903230     0.13900
H1004       H  0.07322878  0.70512182  0.83874131     0.14500
C1005       C  0.08860426  0.73443462  0.56898970    -0.15100
C1006       C  0.08544969  0.75584114  0.59335465    -0.30300
H1007       H  0.09806955  0.71350903  0.57681238     0.13900
H1008       H  0.07501517  0.77643097  0.58623451     0.14500
C1009       C  0.16248282  0.69490991  0.98608358    -0.15100
C1010       C  0.15508635  0.65865560  0.49027999    -0.30300
H1011       H  0.18190524  0.70459936  0.99779971     0.13900
H1012       H  0.13625427  0.64919268  0.47699993     0.14500
C1013       C  0.11739965  0.62634675  0.65562532    -0.15100
C1014       C  0.12061695  0.61980284  0.62085234    -0.30300
H1015       H  0.13110492  0.61467646  0.67439695     0.13900
H1016       H  0.10674918  0.63096974  0.60183497     0.14500
C1017       C  0.48554519  0.72800051  0.95581239    -0.15100
C1018       C  0.49996953  0.75451393  0.95623492    -0.30300
H1019       H  0.49780237  0.70763373  0.95670896     0.13900
H1020       H  0.48778210  0.77492498  0.95539673     0.14500
C1021       C  0.31199686  0.66226789  0.52909650    -0.15100
C1022       C  0.28452380  0.67053443  0.53465864    -0.30300
H1023       H  0.32110605  0.64416839  0.54431590     0.13900
H1024       H  0.27582976  0.68928235  0.52022163     0.14500
C1025       C  0.25159004  0.49173695  0.82513113    -0.15100
C1026       C  0.22302507  0.98489291  0.80787926    -0.30300
H1027       H  0.27102902  0.47862734  0.82831280     0.13900
H1028       H  0.20276335  0.99694488  0.80760637     0.14500
C1029       C  0.18982104  0.66995838  0.78244679    -0.15100
C1030       C  0.16146486  0.66416777  0.77759596    -0.30300
H1031       H  0.19959280  0.68936956  0.77033300     0.13900
H1032       H  0.15166790  0.64561181  0.79151427     0.14500
C1033       C  0.35436414  0.62018978  0.86999352    -0.15100
C1034       C  0.36036905  0.62525892  0.90466311    -0.30300
H1035       H  0.36617062  0.63318385  0.85045712     0.13900
H1036       H  0.34819565  0.61244928  0.92403852     0.14500
C1037       C  0.24131900  0.60233785  0.68296621    -0.15100
C1038       C  0.24810943  0.57639304  0.69809165    -0.30300
H1039       H  0.23453627  0.62060178  0.69971677     0.13900
H1040       H  0.25623437  0.55827691  0.68209934     0.14500
C1041       C  0.21969307  0.59228175  0.92508260    -0.15100
C1042       C  0.24023128  0.59567764  0.95025766    -0.30300
H1043       H  0.19884078  0.58248005  0.93166228     0.13900
H1044       H  0.26130783  0.60454872  0.94277085     0.14500
C1045       C  0.48039250  0.75672985  0.70037980    -0.15100
C1046       C  0.49417661  0.73034174  0.69776790    -0.30300
H1047       H  0.49292458  0.77696902  0.70360467     0.13900
H1048       H  0.98204828  0.70889824  0.70171316     0.14500
C1049       C  0.30875130  0.68435694  0.73357183    -0.15100
C1050       C  0.31877959  0.65749131  0.74249807    -0.30300
H1051       H  0.28749028  0.69139163  0.74243031     0.13900
H1052       H  0.33924336  0.64980628  0.73177584     0.14500
C1053       C  0.39354826  0.74147251  0.82263470    -0.15100
C1054       C  0.38862217  0.76249551  0.84699976    -0.30300
H1055       H  0.39206637  0.71836327  0.83025819     0.13900
H1056       H  0.39105066  0.78571500  0.84038587     0.14500
C1057       C  0.38005733  0.72733999  0.59319075    -0.15100
C1058       C  0.38140097  0.74913592  0.56887918    -0.30300
H1059       H  0.38724216  0.70532148  0.58613321     0.13900
H1060       H  0.37481466  0.77129004  0.57628444     0.14500
C1061       C  0.31458716  0.82369554  0.77810310    -0.15100
C1062       C  0.29031145  0.81283970  0.79330227    -0.30300
H1063       H  0.32223551  0.84560955  0.78544645     0.13900
H1064       H  0.28265984  0.79083311  0.78643086     0.14500
C1065       C  0.25524975  0.98922633  0.57370388    -0.15100
C1066       C  0.22509126  0.49712625  0.57586837    -0.30300
H1067       H  0.27469495  0.00281115  0.57173652     0.13900
H1068       H  0.20921562  0.98853833  0.57484339     0.14500
C1069       C  0.16206705  0.82102862  0.52277619    -0.15100
C1070       C  0.18899388  0.81265395  0.53142472    -0.30300
H1071       H  0.14592253  0.84519916  0.03786542     0.13900
H1072       H  0.19679305  0.79103137  0.52361118     0.14500
C1073       C  0.31139995  0.79912714  0.98014925    -0.15100
C1074       C  0.32205010  0.82163895  0.49400944    -0.30300
H1075       H  0.28899810  0.79189951  0.98261292     0.13900
H1076       H  0.34303344  0.82878282  0.48402445     0.14500
C1077       C  0.36727145  0.85073843  0.63641510    -0.15100
C1078       C  0.34701047  0.87191783  0.64010520    -0.30300
H1079       H  0.37339972  0.84435544  0.60958347     0.13900
H1080       H  0.34007207  0.87752314  0.66688919     0.14500
C1081       C  0.23629539  0.90387558  0.95187658    -0.15100
C1082       C  0.25749841  0.90113991  0.92776391    -0.30300
H1083       H  0.21396364  0.89980826  0.94381458     0.13900
H1084       H  0.27990585  0.90591189  0.93468037     0.14500
C1085       C  0.24555643  0.88252005  0.70001622    -0.15100
C1086       C  0.22452693  0.88409602  0.67531255    -0.30300
H1087       H  0.26677146  0.87403128  0.69297443     0.13900
H1088       H  0.20355912  0.89336316  0.68191270     0.14500
Fe1089     Fe  0.71958791  0.39578167  0.06449046     1.65800
Fe1090     Fe  0.76570395  0.34128138  0.08124534     1.73200
Fe1091     Fe  0.79056513  0.40537144  0.04511397     1.54400
O1092       O  0.77469396  0.40930549  0.49726148    -0.80400
O1093       O  0.80177074  0.35383565  0.11043494    -0.78700
O1094       O  0.72718671  0.40380408  0.50838814    -0.82900
O1095       O  0.72950003  0.43963204  0.06218192    -0.77700
O1096       O  0.80826590  0.37117231  0.01574450    -0.79500
O1097       O  0.74017658  0.35094990  0.12615346    -0.82200
C1098       C  0.75156712  0.45517975  0.06856568     0.98500
C1099       C  0.74842697  0.40657573  0.48710630     1.06000
O1100       O  0.75932406  0.38101093  0.06408456    -1.11200
O1101       O  0.73205998  0.32421734  0.05109284    -0.73700
O1102       O  0.69855636  0.35551746  0.06646719    -0.77100
O1103       O  0.77661033  0.44378357  0.07098866    -0.77800
C1104       C  0.70604369  0.33233278  0.05063450     0.97400
O1105       O  0.72193370  0.39655516  0.11850137    -0.75800
O1106       O  0.79111680  0.32917258  0.03857505    -0.81000
C1107       C  0.82061775  0.37446031  0.10944158     1.00100
C1108       C  0.80608432  0.34323715  0.01583417     1.06000
O1109       O  0.81916476  0.39611523  0.08762845    -0.76600
C1110       C  0.72935193  0.37500522  0.13812562     1.04300
Fe1111     Fe  0.89950920  0.23101449  0.21617057     1.65800
Fe1112     Fe  0.84588669  0.27386626  0.18386914     1.73200
Fe1113     Fe  0.90568297  0.30609564  0.22112115     1.54400
O1114       O  0.91492628  0.28790976  0.27103778    -0.80400
O1115       O  0.85482053  0.31211731  0.15771310    -0.78700
O1116       O  0.89979128  0.24075910  0.26990804    -0.82900
O1117       O  0.94190898  0.24310080  0.21103939    -0.77700
O1118       O  0.86895302  0.32394507  0.24432036    -0.79500
O1119       O  0.86250196  0.25023914  0.14049776    -0.82200
C1120       C  0.95658225  0.26567380  0.20302292     0.98500
C1121       C  0.90712801  0.26416659  0.28661314     1.06000
O1122       O  0.88384132  0.27044541  0.20662330    -1.11200
O1123       O  0.82639386  0.23795414  0.20661914    -0.73700
O1124       O  0.86144080  0.20908797  0.22478198    -0.77100
O1125       O  0.94520091  0.29114261  0.20045852    -0.77800
C1126       C  0.83501146  0.21479720  0.22127956     0.97400
O1127       O  0.89835884  0.22151962  0.16206591    -0.75800
O1128       O  0.83015693  0.29742256  0.22683043    -0.81000
C1129       C  0.87442460  0.33146519  0.15548976     1.00100
C1130       C  0.84219878  0.31702908  0.24633556     1.06000
O1131       O  0.89760692  0.33023233  0.17397862    -0.76600
C1132       C  0.88339023  0.23194250  0.13635856     1.04300
Fe1133     Fe  0.71902387  0.09320033  0.31829295     1.65800
Fe1134     Fe  0.76835712  0.14509711  0.33721718     1.73200
Fe1135     Fe  0.78737214  0.08519739  0.28897903     1.54400
O1136       O  0.77671002  0.04651629  0.31642379    -0.80400
O1137       O  0.79347109  0.15925466  0.29486078    -0.78700
O1138       O  0.72896332  0.04908095  0.31110818    -0.82900
O1139       O  0.71587462  0.09953826  0.26413807    -0.77700
O1140       O  0.82183011  0.09571897  0.32395498    -0.79500
O1141       O  0.73470234  0.16536635  0.31131673    -0.82200
C1142       C  0.73434928  0.09122018  0.24115092     0.98500
C1143       C  0.75178439  0.03418630  0.31558344     1.06000
O1144       O  0.75895124  0.10761900  0.31542516    -1.11200
O1145       O  0.74427785  0.13351930  0.38224556    -0.73700
O1146       O  0.72459326  0.08872103  0.37239753    -0.77100
O1147       O  0.75657458  0.07604173  0.24965371    -0.77800
C1148       C  0.73415279  0.10881473  0.39330197     0.97400
O1149       O  0.70029296  0.13405970  0.32577600    -0.75800
O1150       O  0.80407096  0.12850824  0.36267666    -0.81000
C1151       C  0.80276862  0.14774183  0.26620299     1.00100
C1152       C  0.82488133  0.11363424  0.35009720     1.05200
O1153       O  0.79994681  0.12062893  0.25877644    -0.76600
C1154       C  0.70841917  0.15775686  0.31111653     1.04300
Fe1155     Fe  0.89315633  0.25913023  0.45725161     1.65800
Fe1156     Fe  0.84000249  0.21288458  0.43302324     1.73200
Fe1157     Fe  0.89958401  0.18720409  0.47610230     1.54400
O1158       O  0.93700827  0.19902788  0.44715225    -0.80400
O1159       O  0.82558998  0.18626157  0.47414421    -0.78700
O1160       O  0.93569008  0.24679530  0.45986764    -0.82900
O1161       O  0.89843067  0.25731147  0.01401463    -0.77700
O1162       O  0.88658141  0.15542635  0.43847933    -0.79500
O1163       O  0.82158172  0.24670995  0.46193016    -0.82200
C1164       C  0.89991814  0.23609612  0.03604473     0.98500
C1165       C  0.94934653  0.22437037  0.44944476     1.06000
O1166       O  0.87767057  0.21910931  0.45457230    -1.11200
O1167       O  0.85226633  0.23932755  0.38991573    -0.73700
O1168       O  0.89582451  0.25966261  0.40212472    -0.77100
O1169       O  0.90383350  0.20936142  0.02656625    -0.77800
C1170       C  0.87611828  0.25144732  0.38016733     0.97400
O1171       O  0.85459549  0.28117438  0.45469715    -0.75800
O1172       O  0.85344496  0.17680348  0.40381832    -0.81000
C1173       C  0.83350499  0.17939715  0.99896078     1.00100
C1174       C  0.86812074  0.15450413  0.41318203     1.06000
O1175       O  0.85984102  0.17170998  0.00017261    -0.76600
C1176       C  0.83022127  0.27295110  0.46595329     1.04300
Fe1177     Fe  0.75946549  0.09472387  0.06595419     1.65800
Fe1178     Fe  0.71090275  0.14552168  0.09024285     1.73200
Fe1179     Fe  0.68984293  0.08592587  0.04197874     1.54400
O1180       O  0.70476360  0.06330006  0.50152848    -0.80400
O1181       O  0.67548115  0.12890853  0.11671697    -0.78700
O1182       O  0.74695783  0.08718148  0.50397178    -0.82900
O1183       O  0.74862219  0.05093209  0.06005610    -0.77700
O1184       O  0.67743224  0.12144049  0.01247182    -0.79500
O1185       O  0.73538129  0.13188168  0.13474786    -0.82200
C1186       C  0.72637281  0.03610445  0.06854061     0.98500
C1187       C  0.72602758  0.07602825  0.48636026     1.06000
O1188       O  0.71945188  0.10856823  0.06680456    -1.11200
O1189       O  0.74377622  0.16699411  0.06322800    -0.73700
O1190       O  0.77853262  0.13540620  0.07228582    -0.77100
O1191       O  0.70132086  0.04778072  0.06981894    -0.77800
C1192       C  0.76959705  0.15912064  0.05889211     0.97400
O1193       O  0.75811565  0.08979997  0.11981577    -0.75800
O1194       O  0.68543101  0.16029694  0.04818421    -0.81000
C1195       C  0.65412182  0.11425871  0.10468033     1.00100
C1196       C  0.67591807  0.14872654  0.01942258     1.06000
O1197       O  0.65641386  0.09651887  0.07830532    -0.76600
C1198       C  0.74832052  0.10774890  0.14280403     1.04300
Fe1199     Fe  0.58440639  0.26035055  0.20154007     1.65800
Fe1200     Fe  0.64011650  0.21618172  0.18750379     1.73200
Fe1201     Fe  0.57992162  0.18976485  0.22884922     1.54400
O1202       O  0.57093802  0.21913577  0.27048266    -0.80400
O1203       O  0.63029007  0.17639903  0.16316282    -0.78700
O1204       O  0.58989678  0.26345338  0.25614671    -0.82900
O1205       O  0.54201190  0.24806564  0.20869999    -0.77700
O1206       O  0.61510015  0.17655993  0.25881825    -0.79500
O1207       O  0.62738243  0.23728702  0.14034348    -0.82200
C1208       C  0.52795427  0.22456684  0.20331133     0.98500
C1209       C  0.58334316  0.24360369  0.27905822     1.06000
O1210       O  0.60120233  0.22108615  0.20512603    -1.11200
O1211       O  0.65478239  0.25394274  0.21363524    -0.73700
O1212       O  0.62213280  0.28355326  0.19276590    -0.77100
O1213       O  0.54072323  0.19968978  0.20246279    -0.77800
C1214       C  0.64481225  0.27962385  0.21039690     0.97400
O1215       O  0.58154459  0.25331237  0.14750047    -0.75800
O1216       O  0.65460111  0.19455247  0.23223064    -0.81000
C1217       C  0.61232800  0.15547438  0.16877359     1.00100
C1218       C  0.64230159  0.18038438  0.25719113     1.06000
O1219       O  0.59090243  0.15766668  0.19032759    -0.76600
C1220       C  0.60262750  0.24491965  0.12786608     1.04300
Fe1221     Fe  0.58690337  0.22132814  0.45581285     1.65800
Fe1222     Fe  0.63833976  0.26910286  0.43051439     1.73200
Fe1223     Fe  0.58163432  0.29264607  0.47973130     1.54400
O1224       O  0.54296194  0.28210851  0.45336695    -0.80400
O1225       O  0.65453914  0.29513903  0.47202199    -0.78700
O1226       O  0.54439800  0.23372200  0.46252029    -0.82900
O1227       O  0.58505156  0.22930845  0.01544603    -0.77700
O1228       O  0.59334504  0.32632910  0.44306142    -0.79500
O1229       O  0.65830025  0.23533983  0.45759980    -0.82200
C1230       C  0.57240646  0.24927560  0.03336800     0.98500
C1231       C  0.53037597  0.25699771  0.45593771     1.06000
O1232       O  0.60204682  0.26167322  0.45447958    -1.11200
O1233       O  0.62365375  0.24410803  0.38636412    -0.73700
O1234       O  0.58140132  0.22251538  0.40176971    -0.77100
O1235       O  0.55898492  0.27024057  0.01839373    -0.77800
C1236       C  0.59941073  0.23152446  0.37848798     0.97400
O1237       O  0.62598186  0.20048922  0.44916760    -0.75800
O1238       O  0.62275478  0.30497807  0.40380671    -0.81000
C1239       C  0.63651949  0.30950795  0.00208986     1.00100
C1240       C  0.61026108  0.32758349  0.41608746     1.06000
O1241       O  0.60969724  0.30778596  0.00983116    -0.76600
C1242       C  0.64993588  0.20909028  0.46168559     1.04300
Fe1243     Fe  0.75709584  0.40486313  0.30753089     1.65800
Fe1244     Fe  0.72066821  0.34672831  0.34221997     1.73200
Fe1245     Fe  0.68483899  0.39574356  0.29102149     1.54400
O1246       O  0.69416031  0.44156480  0.29988671    -0.80400
O1247       O  0.70700699  0.32213892  0.29968073    -0.78700
O1248       O  0.73952054  0.44406692  0.32038089    -0.82900
O1249       O  0.75031718  0.41169583  0.25332497    -0.77700
O1250       O  0.65976840  0.39274430  0.33712376    -0.79500
O1251       O  0.76285289  0.33389677  0.32891679    -0.82200
C1252       C  0.72991256  0.40399660  0.23245969     0.98500
C1253       C  0.71640087  0.45634932  0.31071934     1.06000
O1254       O  0.72066528  0.38286493  0.31388911    -1.11200
O1255       O  0.73408422  0.37108697  0.38538951    -0.73700
O1256       O  0.76809616  0.40034646  0.36126140    -0.77100
O1257       O  0.70482973  0.39708731  0.24302601    -0.77800
C1258       C  0.75436154  0.39015853  0.38803549     0.97400
O1259       O  0.77879399  0.36853353  0.29233907    -0.75800
O1260       O  0.67769862  0.35090764  0.35834961    -0.81000
C1261       C  0.68619574  0.32709843  0.27849243     1.00100
C1262       C  0.65702526  0.36909182  0.35512935     1.06000
O1263       O  0.67343078  0.35210029  0.27674787    -0.76600
C1264       C  0.78004794  0.34285805  0.30483137     1.04300
C1265       C  0.61978267  0.35652545  0.40098487    -0.15100
C1266       C  0.62792650  0.35838400  0.36658134    -0.30300
H1267       H  0.62837030  0.37253067  0.41986306     0.13900
H1268       H  0.61882887  0.34194009  0.34856947     0.14500
C1269       C  0.65809716  0.30527125  0.22861419    -0.15100
C1270       C  0.67635210  0.30209062  0.25612358    -0.30300
H1271       H  0.65029403  0.32712147  0.22172946     0.13900
H1272       H  0.68394341  0.28017802  0.26313921     0.14500
C1273       C  0.59126436  0.24880439  0.31685871    -0.15100
C1274       C  0.59147597  0.22669931  0.34085904    -0.30300
H1275       H  0.59874009  0.27067448  0.32469629     0.13900
H1276       H  0.58328245  0.20499583  0.33350783     0.14500
C1277       C  0.57386323  0.24914656  0.07242900    -0.15100
C1278       C  0.59897756  0.24338376  0.08893451    -0.30300
H1279       H  0.55537810  0.25707349  0.08743108     0.13900
H1280       H  0.61768511  0.23700279  0.07320103     0.14500
C1281       C  0.66748311  0.18892179  0.48351751    -0.15100
C1282       C  0.66096123  0.16706660  0.99327378    -0.30300
H1283       H  0.68660879  0.19772210  0.49684470     0.13900
H1284       H  0.64429758  0.15644891  0.97714462     0.14500
C1285       C  0.62038044  0.12627840  0.15363497    -0.15100
C1286       C  0.62505647  0.12257014  0.11851576    -0.30300
H1287       H  0.63313478  0.11288262  0.17170774     0.13900
H1288       H  0.61221900  0.13562303  0.10016662     0.14500
C1289       C  0.98090134  0.22843332  0.44273210    -0.15100
C1290       C  0.99364034  0.25578787  0.44158790    -0.30300
H1291       H  0.99418454  0.20875536  0.44211733     0.13900
H1292       H  0.98029526  0.27542421  0.44105898     0.14500
C1293       C  0.81438279  0.16552561  0.02534352    -0.15100
C1294       C  0.78902889  0.17678268  0.03601007    -0.30300
H1295       H  0.82188559  0.14486359  0.03666262     0.13900
H1296       H  0.78144367  0.19759229  0.02523127     0.14500
C1297       C  0.74923014  0.00147723  0.31775236    -0.15100
C1298       C  0.71703302  0.48932972  0.31033179    -0.30300
H1299       H  0.76935784  0.98921051  0.31889563     0.13900
H1300       H  0.69703164  0.50102330  0.30499290     0.14500
C1301       C  0.68765024  0.17585457  0.29111555    -0.15100
C1302       C  0.66035313  0.16671809  0.28491279    -0.30300
H1303       H  0.69602054  0.19527495  0.27750982     0.13900
H1304       H  0.65157782  0.14770975  0.29895211     0.14500
C1305       C  0.85423077  0.12181670  0.36310280    -0.15100
C1306       C  0.85931107  0.12548249  0.39807584    -0.30300
H1307       H  0.86677769  0.13513319  0.34458823     0.13900
H1308       H  0.84725845  0.11158574  0.41646766     0.14500
C1309       C  0.75221783  0.09953644  0.18032298    -0.15100
C1310       C  0.73019644  0.10015707  0.20369890    -0.30300
H1311       H  0.77284312  0.09000534  0.18797736     0.13900
H1312       H  0.70935798  0.10901686  0.19566800     0.14500
C1313       C  0.73430525  0.10395608  0.43203900    -0.15100
C1314       C  0.72570867  0.07862831  0.44736784    -0.30300
H1315       H  0.74244867  0.12185290  0.44867526     0.13900
H1316       H  0.71606974  0.06102312  0.43157230     0.14500
C1317       C  0.98830187  0.26171779  0.19867484    -0.15100
C1318       C  0.00089486  0.23465700  0.20037417    -0.30300
H1319       H  0.00173504  0.28148117  0.19705937     0.13900
H1320       H  0.48305030  0.20666811  0.20031288     0.14500
C1321       C  0.81360699  0.19475630  0.23712912    -0.15100
C1322       C  0.81942184  0.16613530  0.24153580    -0.30300
H1323       H  0.79385308  0.20407275  0.24796847     0.13900
H1324       H  0.83810487  0.15639113  0.22858119     0.14500
C1325       C  0.90502278  0.26428407  0.32587903    -0.15100
C1326       C  0.88051562  0.25447644  0.34134893    -0.30300
H1327       H  0.92248646  0.27373011  0.34172337     0.13900
H1328       H  0.86294121  0.24664394  0.32435516     0.14500
C1329       C  0.89135144  0.22295650  0.09978013    -0.15100
C1330       C  0.89496053  0.24333379  0.07405319    -0.30300
H1331       H  0.89547425  0.19980844  0.09437216     0.13900
H1332       H  0.89184527  0.26646682  0.08071136     0.14500
C1333       C  0.82430098  0.33414332  0.27104340    -0.15100
C1334       C  0.80148490  0.32281431  0.28882131    -0.30300
H1335       H  0.82957144  0.35748047  0.27362673     0.13900
H1336       H  0.79714646  0.29921028  0.28854075     0.14500
C1337       C  0.74753818  0.48759584  0.07104078    -0.15100
C1338       C  0.73007472  0.00409446  0.07492712    -0.30300
H1339       H  0.76688234  0.50135555  0.07276861     0.13900
H1340       H  0.70157936  0.48657086  0.06665673     0.14500
C1341       C  0.65644421  0.32286455  0.02833116    -0.15100
C1342       C  0.68459550  0.31535167  0.02969836    -0.30300
H1343       H  0.65450481  0.34139264  0.53696937     0.13900
H1344       H  0.69254589  0.29771762  0.01277647     0.14500
C1345       C  0.81228099  0.29395903  0.48596750    -0.15100
C1346       C  0.82306759  0.32637145  0.98962603    -0.30300
H1347       H  0.79194755  0.28593160  0.49696131     0.13900
H1348       H  0.84429872  0.33496796  0.98246908     0.14500
C1349       C  0.86813711  0.35584332  0.13019560    -0.15100
C1350       C  0.84429738  0.37247309  0.13624279    -0.30300
H1351       H  0.87485635  0.35228571  0.10283744     0.13900
H1352       H  0.83680260  0.37379935  0.16363030     0.14500
C1353       C  0.74182817  0.40384329  0.44888990    -0.15100
C1354       C  0.76235618  0.40065103  0.42386740    -0.30300
H1355       H  0.71921391  0.40057504  0.44158509     0.13900
H1356       H  0.78504187  0.40471698  0.42999350     0.14500
C1357       C  0.73538973  0.40152686  0.19423805    -0.15100
C1358       C  0.72498796  0.37796915  0.17637843    -0.30300
H1359       H  0.74882805  0.41795373  0.18100480     0.13900
H1360       H  0.71419031  0.36004440  0.19042740     0.14500
Fe1361     Fe  0.72360333  0.39828305  0.56255993     1.65800
Fe1362     Fe  0.76963763  0.34324600  0.58639706     1.73200
Fe1363     Fe  0.79634176  0.40466476  0.54545800     1.54400
O1364       O  0.76450781  0.41409930  0.00081199    -0.80400
O1365       O  0.80907229  0.35466554  0.60857939    -0.78700
O1366       O  0.72012982  0.39426008  0.01038708    -0.82900
O1367       O  0.73453171  0.44095523  0.57179595    -0.77700
O1368       O  0.81475801  0.36692282  0.52316282    -0.79500
O1369       O  0.75026700  0.35779663  0.63267157    -0.82200
C1370       C  0.75693707  0.45681074  0.57039695     0.98500
C1371       C  0.74019228  0.40349450  0.98989135     1.06000
O1372       O  0.76323166  0.38232812  0.56505109    -1.11200
O1373       O  0.73263652  0.32310466  0.56666232    -0.73700
O1374       O  0.70386235  0.35946395  0.55118745    -0.77100
O1375       O  0.78181277  0.44620356  0.56328192    -0.77800
C1376       C  0.70962675  0.33246715  0.55273883     0.97400
O1377       O  0.71869975  0.39307701  0.61674633    -0.75800
O1378       O  0.78911062  0.32783633  0.54138914    -0.81000
C1379       C  0.82566393  0.37698905  0.61059014     1.00100
C1380       C  0.80762220  0.33976314  0.52103683     1.06000
O1381       O  0.82169857  0.40009762  0.59181554    -0.76600
C1382       C  0.73193761  0.37784395  0.64003786     1.04300
Fe1383     Fe  0.88854988  0.22552539  0.70051653     1.65800
Fe1384     Fe  0.83621898  0.27504241  0.68639767     1.73200
Fe1385     Fe  0.89957825  0.29664926  0.72507251     1.54400
O1386       O  0.90524227  0.26896277  0.76950354    -0.80400
O1387       O  0.84936055  0.31267024  0.66074345    -0.78700
O1388       O  0.88700798  0.22402336  0.75542824    -0.82900
O1389       O  0.93254487  0.23352838  0.70273592    -0.77700
O1390       O  0.86604892  0.31511368  0.75399728    -0.79500
O1391       O  0.84535898  0.25201746  0.63917398    -0.82200
C1392       C  0.94848894  0.25605035  0.69963366     0.98500
C1393       C  0.89463097  0.24365322  0.77817931     1.06000
O1394       O  0.87509830  0.26635103  0.70354778    -1.11200
O1395       O  0.81814996  0.24041804  0.71350830    -0.73700
O1396       O  0.84821234  0.20571141  0.69824369    -0.77100
O1397       O  0.93787937  0.28191809  0.70064219    -0.77800
C1398       C  0.82587901  0.21399840  0.71455299     0.97400
O1399       O  0.88886133  0.23040440  0.64576539    -0.75800
O1400       O  0.82467765  0.29797093  0.73126397    -0.81000
C1401       C  0.87096607  0.33010633  0.66140906     1.00100
C1402       C  0.83873543  0.31205034  0.75482416     1.06000
O1403       O  0.89266344  0.32659818  0.68241396    -0.76600
C1404       C  0.86871443  0.24116728  0.62631449     1.04300
Fe1405     Fe  0.72039329  0.08819112  0.81191672     1.65800
Fe1406     Fe  0.76816667  0.14031425  0.83834308     1.73200
Fe1407     Fe  0.79114078  0.08223346  0.78909988     1.54400
O1408       O  0.77966829  0.04225158  0.81346410    -0.80400
O1409       O  0.79333283  0.15710656  0.79699902    -0.78700
O1410       O  0.73190496  0.04429657  0.80671726    -0.82900
O1411       O  0.72098334  0.09418917  0.75805326    -0.77700
O1412       O  0.82360040  0.09217808  0.82743164    -0.79500
O1413       O  0.73474801  0.16111426  0.81177674    -0.82200
C1414       C  0.74036074  0.08664244  0.73601704     0.98500
C1415       C  0.75483100  0.02969467  0.81185813     1.06000
O1416       O  0.76047499  0.10328418  0.81399952    -1.11200
O1417       O  0.74376380  0.12516037  0.88218895    -0.73700
O1418       O  0.72019553  0.08351069  0.86609876    -0.77100
O1419       O  0.76376937  0.07387877  0.74553881    -0.77800
C1420       C  0.72983875  0.10128840  0.88961318     0.97400
O1421       O  0.69968978  0.12839120  0.81592990    -0.75800
O1422       O  0.80434765  0.12505622  0.86476007    -0.81000
C1423       C  0.80435006  0.14625996  0.76880471     1.00100
C1424       C  0.82577504  0.11038924  0.85344813     1.05200
O1425       O  0.80436622  0.11894164  0.76189529    -0.76600
C1426       C  0.70889671  0.15334526  0.80600122     1.04300
Fe1427     Fe  0.89853384  0.25970208  0.95921058     1.65800
Fe1428     Fe  0.84290605  0.21570589  0.93124375     1.73200
Fe1429     Fe  0.89854417  0.18579944  0.97905568     1.54400
O1430       O  0.94083064  0.19621803  0.96173475    -0.80400
O1431       O  0.82353198  0.19739079  0.97603580    -0.78700
O1432       O  0.94022126  0.24495127  0.95638735    -0.82900
O1433       O  0.88898482  0.25618783  0.51242564    -0.77700
O1434       O  0.89184406  0.15658514  0.93589485    -0.79500
O1435       O  0.82512743  0.25505094  0.94808710    -0.82200
C1436       C  0.89996700  0.23587340  0.53167397     0.98500
C1437       C  0.95379033  0.22088819  0.95715299     1.06000
O1438       O  0.88024328  0.22019940  0.95601641    -1.11200
O1439       O  0.86176106  0.23371759  0.88543309    -0.73700
O1440       O  0.89815726  0.26338775  0.90413714    -0.77100
O1441       O  0.91312422  0.21400179  0.51813353    -0.77800
C1442       C  0.88328860  0.25105499  0.87949222     0.97400
O1443       O  0.86147113  0.28359028  0.96479118    -0.75800
O1444       O  0.85123397  0.17406912  0.91196208    -0.81000
C1445       C  0.83711553  0.17484470  0.50164145     1.00100
C1446       C  0.86938944  0.15356779  0.91615984     1.06000
O1447       O  0.86437754  0.17449842  0.50702583    -0.76600
C1448       C  0.83477110  0.27867161  0.96150006     1.04300
Fe1449     Fe  0.75254686  0.08399363  0.55814978     1.65800
Fe1450     Fe  0.70998135  0.13907965  0.58634450     1.73200
Fe1451     Fe  0.68069591  0.07927437  0.54431859     1.54400
O1452       O  0.71852329  0.07637672  0.00020012    -0.80400
O1453       O  0.67370447  0.12746193  0.61554734    -0.78700
O1454       O  0.75969333  0.10072113  0.01191548    -0.82900
O1455       O  0.73753179  0.04148989  0.55863968    -0.77700
O1456       O  0.66977481  0.11485886  0.51326089    -0.79500
O1457       O  0.73486747  0.12383840  0.62953168    -0.82200
C1458       C  0.71526710  0.02837695  0.57040529     0.98500
C1459       C  0.74098180  0.09080507  0.99003612     1.06000
O1460       O  0.71398310  0.10084637  0.56393489    -1.11200
O1461       O  0.74442217  0.15779525  0.55869300    -0.73700
O1462       O  0.77641750  0.12214864  0.55656182    -0.77100
O1463       O  0.69104974  0.04158155  0.57388406    -0.77800
C1464       C  0.76934145  0.14846257  0.55097619     0.97400
O1465       O  0.75739666  0.08214734  0.61227501    -0.75800
O1466       O  0.68465792  0.15463476  0.54436097    -0.81000
C1467       C  0.65074592  0.11393268  0.60639154     1.00100
C1468       C  0.67208142  0.14261719  0.51758210     1.06000
O1469       O  0.65048141  0.09448847  0.58185299    -0.76600
C1470       C  0.74919498  0.10022018  0.63612243     1.04300
Fe1471     Fe  0.58363133  0.26515070  0.70844743     1.65800
Fe1472     Fe  0.63652137  0.21949818  0.68433667     1.73200
Fe1473     Fe  0.57939636  0.19380100  0.73178335     1.54400
O1474       O  0.57049294  0.22239376  0.77398111    -0.80400
O1475       O  0.62386450  0.18121475  0.65911178    -0.78700
O1476       O  0.59256079  0.26541120  0.76220401    -0.82900
O1477       O  0.54155871  0.25237845  0.71830013    -0.77700
O1478       O  0.61581430  0.18126932  0.75965631    -0.79500
O1479       O  0.61983942  0.24248806  0.63967580    -0.82200
C1480       C  0.52747716  0.22953176  0.70948514     0.98500
C1481       C  0.58476671  0.24526965  0.78395625     1.06000
O1482       O  0.59968145  0.22529733  0.70723049    -1.11200
O1483       O  0.65468260  0.25582215  0.70959199    -0.73700
O1484       O  0.62111841  0.28801408  0.69747869    -0.77100
O1485       O  0.54008901  0.20461979  0.70624307    -0.77800
C1486       C  0.64576424  0.28202579  0.70924224     0.97400
O1487       O  0.57682598  0.26251749  0.65488808    -0.75800
O1488       O  0.65392117  0.19541413  0.72689779    -0.81000
C1489       C  0.60884634  0.15924455  0.66925159     1.00100
C1490       C  0.64291867  0.18259059  0.75403630     1.06000
O1491       O  0.58986582  0.16098252  0.69398151    -0.76600
C1492       C  0.59517216  0.25402637  0.63174988     1.04300
Fe1493     Fe  0.58211348  0.22479131  0.96081216     1.65800
Fe1494     Fe  0.63288463  0.27226699  0.93245974     1.73200
Fe1495     Fe  0.57478004  0.29702282  0.97769948     1.54400
O1496       O  0.53821602  0.28532057  0.94708616    -0.80400
O1497       O  0.64689869  0.30084514  0.97239843    -0.78700
O1498       O  0.53957685  0.23742527  0.96068116    -0.82900
O1499       O  0.59387144  0.22139678  0.50982707    -0.77700
O1500       O  0.59035966  0.32991428  0.94240721    -0.79500
O1501       O  0.65400136  0.24073405  0.96179810    -0.82200
C1502       C  0.58530586  0.24094457  0.53161622     0.98500
C1503       C  0.52600145  0.25983938  0.94968328     1.06000
O1504       O  0.59659455  0.26494950  0.95635632    -1.11200
O1505       O  0.62084672  0.24446558  0.89055708    -0.73700
O1506       O  0.57961850  0.22140406  0.90643053    -0.77100
O1507       O  0.57139979  0.26374623  0.52140512    -0.77800
C1508       C  0.59731911  0.23071018  0.88302134     0.97400
O1509       O  0.62176871  0.20459794  0.96123592    -0.75800
O1510       O  0.61545694  0.30527813  0.90230652    -0.81000
C1511       C  0.64406359  0.30518933  0.50097976     1.00100
C1512       C  0.60692327  0.32936371  0.91528200     1.06000
O1513       O  0.61740236  0.30417275  0.50861062    -0.76600
C1514       C  0.64652291  0.21466659  0.96916424     1.04300
Fe1515     Fe  0.76210717  0.39589875  0.81458310     1.65800
Fe1516     Fe  0.71748153  0.34393315  0.84825189     1.73200
Fe1517     Fe  0.69235715  0.39406989  0.78972966     1.54400
O1518       O  0.69920845  0.43601683  0.81219722    -0.80400
O1519       O  0.69330702  0.32165721  0.81039659    -0.78700
O1520       O  0.74680839  0.43728096  0.80312381    -0.82900
O1521       O  0.76268561  0.38427047  0.76178830    -0.77700
O1522       O  0.65944840  0.38328223  0.82591949    -0.79500
O1523       O  0.75230834  0.32298688  0.82448979    -0.82200
C1524       C  0.74337267  0.39098762  0.73920606     0.98500
C1525       C  0.72329682  0.45012634  0.81055255     1.06000
O1526       O  0.72339720  0.37825672  0.81852802    -1.11200
O1527       O  0.74125685  0.36453997  0.88862376    -0.73700
O1528       O  0.76133554  0.40636628  0.86717253    -0.77100
O1529       O  0.72022769  0.40417076  0.74812992    -0.77800
C1530       C  0.75329550  0.38990523  0.89265759     0.97400
O1531       O  0.78475323  0.35847494  0.82641224    -0.75800
O1532       O  0.68012750  0.36038128  0.87176208    -0.81000
C1533       C  0.68537808  0.32743365  0.77876165     1.00100
C1534       C  0.65778181  0.36983617  0.85561702     1.06000
O1535       O  0.68561226  0.35342496  0.76578762    -0.76600
C1536       C  0.77739928  0.33270206  0.81767313     1.04300
C1537       C  0.62143530  0.35673728  0.90238192    -0.15100
C1538       C  0.62869151  0.35977790  0.86789538    -0.30300
H1539       H  0.63308040  0.36962309  0.92225337     0.13900
H1540       H  0.61605078  0.34767848  0.84818533     0.14500
C1541       C  0.66285999  0.30608250  0.72497314    -0.15100
C1542       C  0.67505077  0.30246343  0.75701214    -0.30300
H1543       H  0.66068233  0.32807384  0.71378620     0.13900
H1544       H  0.67517839  0.28063658  0.76908803     0.14500
C1545       C  0.59290431  0.24848395  0.82175812    -0.15100
C1546       C  0.58942737  0.22643272  0.84542518    -0.30300
H1547       H  0.60310891  0.26905943  0.83010200     0.13900
H1548       H  0.57821456  0.20622416  0.83785438     0.14500
C1549       C  0.59248903  0.23705494  0.56964910    -0.15100
C1550       C  0.58710810  0.25792567  0.59411884    -0.30300
H1551       H  0.60382824  0.21713194  0.57748030     0.13900
H1552       H  0.57473748  0.27734603  0.58693926     0.14500
C1553       C  0.66641559  0.19594782  0.98951743    -0.15100
C1554       C  0.65839072  0.16133492  0.49049322    -0.30300
H1555       H  0.68415306  0.20633831  0.00403892     0.13900
H1556       H  0.63989276  0.15214973  0.47624084     0.14500
C1557       C  0.61806430  0.12997117  0.65536604    -0.15100
C1558       C  0.62286528  0.12558076  0.62041450    -0.30300
H1559       H  0.62982595  0.11641815  0.67426629     0.13900
H1560       H  0.61082374  0.13900372  0.60163908     0.14500
C1561       C  0.98607464  0.22242529  0.95412073    -0.15100
C1562       C  0.00043140  0.24870390  0.95152146    -0.30300
H1563       H  0.99822416  0.20206084  0.95644452     0.13900
H1564       H  0.98809643  0.26896265  0.94930019     0.14500
C1565       C  0.81806381  0.16010683  0.52773479    -0.15100
C1566       C  0.79020658  0.16799927  0.53247730    -0.30300
H1567       H  0.82679345  0.14136518  0.54211355     0.13900
H1568       H  0.78194996  0.18770441  0.51961573     0.14500
C1569       C  0.75245466  0.99691744  0.81432454    -0.15100
C1570       C  0.72467575  0.48264960  0.81515022    -0.30300
H1571       H  0.77263210  0.98475559  0.81565765     0.13900
H1572       H  0.70466679  0.49496054  0.81259261     0.14500
C1573       C  0.68977169  0.17320299  0.78523642    -0.15100
C1574       C  0.66163041  0.16678888  0.77970109    -0.30300
H1575       H  0.69950636  0.19211431  0.77198535     0.13900
H1576       H  0.65173052  0.14862658  0.79423330     0.14500
C1577       C  0.85498839  0.11939663  0.86723951    -0.15100
C1578       C  0.86012206  0.12408362  0.90219800    -0.30300
H1579       H  0.86815316  0.13159545  0.84827563     0.13900
H1580       H  0.84686788  0.11162595  0.92083421     0.14500
C1581       C  0.75579850  0.09247841  0.67328630    -0.15100
C1582       C  0.73512094  0.09383389  0.69828331    -0.30300
H1583       H  0.77681606  0.08313335  0.67949458     0.13900
H1584       H  0.71386604  0.10221995  0.69114423     0.14500
C1585       C  0.72483285  0.09333646  0.92718323    -0.15100
C1586       C  0.74563619  0.09710495  0.95188056    -0.30300
H1587       H  0.70452372  0.08257592  0.93417363     0.13900
H1588       H  0.76620390  0.10703285  0.94418829     0.14500
C1589       C  0.98053395  0.25198361  0.69621910    -0.15100
C1590       C  0.99405635  0.22523897  0.69733236    -0.30300
H1591       H  0.99360664  0.27200457  0.69505127     0.13900
H1592       H  0.48299596  0.21227168  0.70112827     0.14500
C1593       C  0.80925071  0.19326013  0.73681013    -0.15100
C1594       C  0.81843366  0.16575402  0.74279813    -0.30300
H1595       H  0.79045965  0.20152755  0.75101437     0.13900
H1596       H  0.83660456  0.15700975  0.72783961     0.14500
C1597       C  0.88925818  0.23694542  0.81625845    -0.15100
C1598       C  0.89181474  0.25733296  0.84224730    -0.30300
H1599       H  0.88070131  0.21520419  0.82276892     0.13900
H1600       H  0.90118062  0.27883864  0.83637102     0.14500
C1601       C  0.87219395  0.24196734  0.58708132    -0.15100
C1602       C  0.89762371  0.23678749  0.57086128    -0.30300
H1603       H  0.85349201  0.24794422  0.57105966     0.13900
H1604       H  0.91614936  0.22965778  0.58643905     0.14500
C1605       C  0.82262620  0.32604294  0.78404617    -0.15100
C1606       C  0.79735546  0.31480272  0.79608268    -0.30300
H1607       H  0.83117555  0.34658152  0.79485525     0.13900
H1608       H  0.78949150  0.29373204  0.78596475     0.14500
C1609       C  0.75299811  0.48914453  0.57487245    -0.15100
C1610       C  0.71828229  0.99630975  0.57700755    -0.30300
H1611       H  0.77217022  0.50305159  0.57230751     0.13900
H1612       H  0.70701282  0.48785272  0.57950222     0.14500
C1613       C  0.66285710  0.32090363  0.52608625    -0.15100
C1614       C  0.68947802  0.31180453  0.53503208    -0.30300
H1615       H  0.64797677  0.33949720  0.04628239     0.13900
H1616       H  0.69726100  0.29042000  0.52627958     0.14500
C1617       C  0.81421953  0.29988589  0.97724050    -0.15100
C1618       C  0.82221777  0.32112669  0.49451534    -0.30300
H1619       H  0.79237989  0.29213025  0.98292904     0.13900
H1620       H  0.84227491  0.32940756  0.48305758     0.14500
C1621       C  0.86983454  0.35442469  0.63492195    -0.15100
C1622       C  0.84902728  0.37524112  0.63785121    -0.30300
H1623       H  0.87589982  0.34778007  0.60815884     0.13900
H1624       H  0.84202851  0.38100039  0.66456253     0.14500
C1625       C  0.73555701  0.39963416  0.95175018    -0.15100
C1626       C  0.75758097  0.40083463  0.92870667    -0.30300
H1627       H  0.71441456  0.39170354  0.94290324     0.13900
H1628       H  0.77878601  0.40926288  0.93641714     0.14500
C1629       C  0.74801199  0.38319545  0.70172259    -0.15100
C1630       C  0.72664097  0.38500336  0.67749311    -0.30300
H1631       H  0.76914328  0.37485842  0.69407411     0.13900
H1632       H  0.70575273  0.39416469  0.68467352     0.14500
Fe1633     Fe  0.72451331  0.90249287  0.05974536     1.65800
Fe1634     Fe  0.76616961  0.84586483  0.08640281     1.73200
Fe1635     Fe  0.79756690  0.90453478  0.04807401     1.54400
O1636       O  0.76448949  0.91005209  0.50198997    -0.80400
O1637       O  0.80819929  0.85321932  0.10478304    -0.78700
O1638       O  0.72036452  0.88978556  0.51099030    -0.82900
O1639       O  0.73702856  0.94315268  0.07651342    -0.77700
O1640       O  0.81555538  0.86480766  0.03083141    -0.79500
O1641       O  0.75084138  0.86348366  0.13267769    -0.82200
C1642       C  0.75938379  0.95851250  0.07080858     0.98500
C1643       C  0.74066197  0.89869871  0.49061145     1.06000
O1644       O  0.76260920  0.88479303  0.06495454    -1.11200
O1645       O  0.72509497  0.82952390  0.07273437    -0.73700
O1646       O  0.70597678  0.86495264  0.04040215    -0.77100
O1647       O  0.78326803  0.94727814  0.06068652    -0.77800
C1648       C  0.70633712  0.83859705  0.05079761     0.97400
O1649       O  0.71519042  0.89300817  0.11307206    -0.75800
O1650       O  0.78195249  0.82975297  0.03938500    -0.81000
C1651       C  0.82322676  0.87602402  0.11200917     1.00100
C1652       C  0.80425620  0.83974828  0.02347412     1.06000
O1653       O  0.81817473  0.90084594  0.09745725    -0.76600
C1654       C  0.73034766  0.88164317  0.13803724     1.04300
Fe1655     Fe  0.89557338  0.72579806  0.20939194     1.65800
Fe1656     Fe  0.84047079  0.77012404  0.18397638     1.73200
Fe1657     Fe  0.89864467  0.79980116  0.22425088     1.54400
O1658       O  0.90124064  0.78015275  0.27357535    -0.80400
O1659       O  0.84836839  0.81303992  0.16748837    -0.78700
O1660       O  0.90488277  0.73153213  0.26333495    -0.82900
O1661       O  0.93652083  0.73775511  0.19505096    -0.77700
O1662       O  0.85981665  0.81829844  0.24237426    -0.79500
O1663       O  0.85793542  0.75508770  0.13681182    -0.82200
C1664       C  0.95174636  0.76046200  0.20073201     0.98500
C1665       C  0.90328739  0.75362881  0.28430815     1.06000
O1666       O  0.87867283  0.76508575  0.20569044    -1.11200
O1667       O  0.82347010  0.72856090  0.19579399    -0.73700
O1668       O  0.85808133  0.70694267  0.22644632    -0.77100
O1669       O  0.94065452  0.78489600  0.21075299    -0.77800
C1670       C  0.83210308  0.70860942  0.21663157     0.97400
O1671       O  0.88717926  0.71847481  0.15513337    -0.75800
O1672       O  0.82405284  0.78590294  0.23163724    -0.81000
C1673       C  0.87083804  0.82842880  0.16140573     1.00100
C1674       C  0.83445162  0.80802029  0.24849906     1.06000
O1675       O  0.89516106  0.82250801  0.17580049    -0.76600
C1676       C  0.87580876  0.73430511  0.13062232     1.04300
Fe1677     Fe  0.71185171  0.59450543  0.31533610     1.65800
Fe1678     Fe  0.76068072  0.64176724  0.34997591     1.73200
Fe1679     Fe  0.78111965  0.59115217  0.28987940     1.54400
O1680       O  0.77059084  0.54959829  0.31143249    -0.80400
O1681       O  0.78962861  0.66075453  0.31459215    -0.78700
O1682       O  0.72298511  0.55171719  0.30208851    -0.82900
O1683       O  0.71151307  0.60708868  0.26258590    -0.77700
O1684       O  0.81495747  0.59966083  0.32687977    -0.79500
O1685       O  0.72924892  0.66666375  0.32429427    -0.82200
C1686       C  0.72981272  0.59884067  0.23944501     0.98500
C1687       C  0.74563187  0.53708516  0.30893072     1.06000
O1688       O  0.75173124  0.60875107  0.31913293    -1.11200
O1689       O  0.73331122  0.62443949  0.38920444    -0.73700
O1690       O  0.71300241  0.58280100  0.36789580    -0.77100
O1691       O  0.75221076  0.58405172  0.24793050    -0.77800
C1692       C  0.72159513  0.59897049  0.39354978     0.97400
O1693       O  0.69406992  0.63432670  0.32906195    -0.75800
O1694       O  0.79440314  0.61978833  0.37450150    -0.81000
C1695       C  0.79699346  0.65561819  0.28260557     1.00100
C1696       C  0.81686300  0.61203062  0.35746347     1.05200
O1697       O  0.79131588  0.63143840  0.26668581    -0.76600
C1698       C  0.70343020  0.65880189  0.31785925     1.04300
Fe1699     Fe  0.89241565  0.76194985  0.45804160     1.65800
Fe1700     Fe  0.83960747  0.71601667  0.43116576     1.73200
Fe1701     Fe  0.89531917  0.69029936  0.48108843     1.54400
O1702       O  0.93510453  0.70017647  0.45584562    -0.80400
O1703       O  0.82242603  0.68912167  0.47116541    -0.78700
O1704       O  0.93471350  0.74870231  0.46417769    -0.82900
O1705       O  0.88336705  0.76447017  0.00835086    -0.77700
O1706       O  0.88259218  0.65754363  0.44348411    -0.79500
O1707       O  0.82033707  0.74963843  0.45872060    -0.82200
C1708       C  0.89140617  0.74512015  0.03085911     0.98500
C1709       C  0.94825626  0.72516582  0.45758897     1.06000
O1710       O  0.87601530  0.72216317  0.45599910    -1.11200
O1711       O  0.85380169  0.74297213  0.38892429    -0.73700
O1712       O  0.89764714  0.76126411  0.40365425    -0.77100
O1713       O  0.90399216  0.72125488  0.02162380    -0.77800
C1714       C  0.87806814  0.75511825  0.38081922     0.97400
O1715       O  0.85375345  0.78398763  0.45237641    -0.75800
O1716       O  0.85511048  0.68037131  0.40325732    -0.81000
C1717       C  0.83200664  0.67931581  0.00554230     1.00100
C1718       C  0.86562011  0.65700842  0.41640965     1.06000
O1719       O  0.85913859  0.67923235  0.01062828    -0.76600
C1720       C  0.82910914  0.77575629  0.46310053     1.04300
Fe1721     Fe  0.75099421  0.59114612  0.06155299     1.65800
Fe1722     Fe  0.70396879  0.64417931  0.08354862     1.73200
Fe1723     Fe  0.68067911  0.58366924  0.03755662     1.54400
O1724       O  0.71364466  0.57079770  0.50249496    -0.80400
O1725       O  0.66599275  0.63072972  0.10696140    -0.78700
O1726       O  0.75486141  0.59576201  0.51296769    -0.82900
O1727       O  0.73997385  0.54753325  0.05638416    -0.77700
O1728       O  0.66655456  0.61983529  0.00997257    -0.79500
O1729       O  0.72560438  0.62947035  0.12965711    -0.82200
C1730       C  0.71744078  0.53250092  0.06240814     0.98500
C1731       C  0.73596171  0.58512461  0.49173689     1.06000
O1732       O  0.71124461  0.60613670  0.06168150    -1.11200
O1733       O  0.73930727  0.66398028  0.05988841    -0.73700
O1734       O  0.77264449  0.63045532  0.06714133    -0.77100
O1735       O  0.69241477  0.54415280  0.06246119    -0.77800
C1736       C  0.76506233  0.65557431  0.05680849     0.97400
O1737       O  0.74926151  0.58753293  0.11578190    -0.75800
O1738       O  0.68204744  0.65995125  0.03930560    -0.81000
C1739       C  0.64625919  0.61192615  0.10019366     1.00100
C1740       C  0.66929719  0.64753555  0.01313648     1.06000
O1741       O  0.64900599  0.59176620  0.07663937    -0.76600
C1742       C  0.73917464  0.60583623  0.13832103     1.04300
Fe1743     Fe  0.58377976  0.75865911  0.20552398     1.65800
Fe1744     Fe  0.63914911  0.71336907  0.18447686     1.73200
Fe1745     Fe  0.57965173  0.68503120  0.22403804     1.54400
O1746       O  0.57447434  0.70716628  0.27103907    -0.80400
O1747       O  0.63162985  0.66983742  0.17040031    -0.78700
O1748       O  0.57391221  0.75560238  0.25927250    -0.82900
O1749       O  0.54312259  0.74601585  0.19124840    -0.77700
O1750       O  0.61761289  0.66859518  0.24678750    -0.79500
O1751       O  0.62337127  0.72699668  0.13592918    -0.82200
C1752       C  0.52782922  0.72317827  0.19562265     0.98500
C1753       C  0.57370041  0.73394967  0.28079554     1.06000
O1754       O  0.60035915  0.71904923  0.20421357    -1.11200
O1755       O  0.65628815  0.75512917  0.19481291    -0.73700
O1756       O  0.62089387  0.77834166  0.22193908    -0.77100
O1757       O  0.53849602  0.69865163  0.20592770    -0.77800
C1758       C  0.64712592  0.77616463  0.21361603     0.97400
O1759       O  0.59318748  0.76372033  0.15166250    -0.75800
O1760       O  0.65399080  0.69971782  0.23371435    -0.81000
C1761       C  0.61048793  0.65203700  0.16737780     1.00100
C1762       C  0.64286312  0.67926927  0.25265518     1.06000
O1763       O  0.58540922  0.65828778  0.17914092    -0.76600
C1764       C  0.60590852  0.74784192  0.12835651     1.04300
Fe1765     Fe  0.58152024  0.72254723  0.45210285     1.65800
Fe1766     Fe  0.63473431  0.76910475  0.42962111     1.73200
Fe1767     Fe  0.57687901  0.79397232  0.47590154     1.54400
O1768       O  0.53756248  0.78344696  0.44963264    -0.80400
O1769       O  0.65015431  0.79626066  0.47017939    -0.78700
O1770       O  0.53878482  0.73491899  0.45727681    -0.82900
O1771       O  0.59989928  0.71937762  0.00514738    -0.77700
O1772       O  0.58988611  0.82672549  0.43841606    -0.79500
O1773       O  0.65293705  0.73607162  0.45888253    -0.82200
C1774       C  0.59303884  0.73828941  0.02855921     0.98500
C1775       C  0.52470576  0.75832309  0.45173371     1.06000
O1776       O  0.59740598  0.76256353  0.45180261    -1.11200
O1777       O  0.62269071  0.74184420  0.38681209    -0.73700
O1778       O  0.57773544  0.72484690  0.39796379    -0.77100
O1779       O  0.57928678  0.76175566  0.02078492    -0.77800
C1780       C  0.59831598  0.73104951  0.37672829     0.97400
O1781       O  0.62091431  0.70129175  0.44756155    -0.75800
O1782       O  0.61992177  0.80425763  0.40059823    -0.81000
C1783       C  0.65070211  0.80554784  0.98611152     1.00100
C1784       C  0.60783300  0.82735254  0.41231936     1.06000
O1785       O  0.62709803  0.80002657  0.00240133    -0.76600
C1786       C  0.64457044  0.70970678  0.46131146     1.04300
Fe1787     Fe  0.76058824  0.89812715  0.31279958     1.65800
Fe1788     Fe  0.71443171  0.84681042  0.34473933     1.73200
Fe1789     Fe  0.69049155  0.89866028  0.28786389     1.54400
O1790       O  0.69792628  0.94000451  0.31178840    -0.80400
O1791       O  0.68669475  0.82781369  0.30794964    -0.78700
O1792       O  0.74603153  0.94072978  0.30594089    -0.82900
O1793       O  0.76049502  0.89007277  0.25909634    -0.77700
O1794       O  0.65747320  0.88631579  0.32389953    -0.79500
O1795       O  0.74736513  0.82451044  0.31841450    -0.82200
C1796       C  0.74125036  0.89757191  0.23684181     0.98500
C1797       C  0.72223302  0.95388384  0.31135673     1.06000
O1798       O  0.72147245  0.88154130  0.31595424    -1.11200
O1799       O  0.74062108  0.86351321  0.38548485    -0.73700
O1800       O  0.76121372  0.90563696  0.36656648    -0.77100
O1801       O  0.71792861  0.91007668  0.24630191    -0.77800
C1802       C  0.75311825  0.88834889  0.39123346     0.97400
O1803       O  0.78173894  0.85852390  0.31911072    -0.75800
O1804       O  0.67931604  0.86571574  0.37030743    -0.81000
C1805       C  0.67865730  0.83392486  0.27648182     1.00100
C1806       C  0.65637426  0.87286933  0.35373810     1.06000
O1807       O  0.68301921  0.85889896  0.26196605    -0.76600
C1808       C  0.77277381  0.83302624  0.31060815     1.04300
C1809       C  0.61947457  0.85603464  0.39868232    -0.15100
C1810       C  0.62833592  0.85891172  0.36463875    -0.30300
H1811       H  0.62802155  0.87121772  0.41854536     0.13900
H1812       H  0.61872905  0.84431041  0.34481845     0.14500
C1813       C  0.66727684  0.79873798  0.22767883    -0.15100
C1814       C  0.66056229  0.81198796  0.25852432    -0.30300
H1815       H  0.68765594  0.80341187  0.21431781     0.13900
H1816       H  0.64144933  0.80489948  0.27319370     0.14500
C1817       C  0.57506457  0.73978856  0.31914794    -0.15100
C1818       C  0.59422143  0.72475546  0.33897140    -0.30300
H1819       H  0.56284233  0.75789593  0.33053547     0.13900
H1820       H  0.60872252  0.70897198  0.32659336     0.14500
C1821       C  0.60121734  0.73267336  0.06577537    -0.15100
C1822       C  0.59898414  0.75367793  0.09087379    -0.30300
H1823       H  0.60993043  0.71115247  0.07248538     0.13900
H1824       H  0.58982153  0.77501731  0.08427419     0.14500
C1825       C  0.66209903  0.68932834  0.48249123    -0.15100
C1826       C  0.65620035  0.66554642  0.98512769    -0.30300
H1827       H  0.68034352  0.69864322  0.49718764     0.13900
H1828       H  0.63687775  0.65666912  0.97229239     0.14500
C1829       C  0.61776925  0.62235312  0.15344826    -0.15100
C1830       C  0.61807286  0.61680073  0.11828794    -0.30300
H1831       H  0.63485531  0.61189981  0.16880871     0.13900
H1832       H  0.60165069  0.62714401  0.10183818     0.14500
C1833       C  0.98044830  0.72752032  0.45366230    -0.15100
C1834       C  0.99492421  0.75400742  0.45323190    -0.30300
H1835       H  0.99259012  0.70708359  0.45296066     0.13900
H1836       H  0.98275890  0.77444027  0.45320359     0.14500
C1837       C  0.81348164  0.66561587  0.03268779    -0.15100
C1838       C  0.78610328  0.67443915  0.03802795    -0.30300
H1839       H  0.82209616  0.64688151  0.04720326     0.13900
H1840       H  0.77807717  0.69396549  0.02453345     0.14500
C1841       C  0.74268748  0.50452434  0.31306893    -0.15100
C1842       C  0.72352550  0.98660074  0.31556155    -0.30300
H1843       H  0.76267832  0.49255839  0.31752919     0.13900
H1844       H  0.70328945  0.99869590  0.31494731     0.14500
C1845       C  0.68486230  0.67692295  0.29445545    -0.15100
C1846       C  0.65969097  0.66586345  0.28179849    -0.30300
H1847       H  0.69338296  0.69764889  0.28426343     0.13900
H1848       H  0.65134161  0.64515735  0.29230369     0.14500
C1849       C  0.84559768  0.62409387  0.36919634    -0.15100
C1850       C  0.85294144  0.62843179  0.40362860    -0.30300
H1851       H  0.85726889  0.63661591  0.34908379     0.13900
H1852       H  0.84226929  0.61509165  0.42379204     0.14500
C1853       C  0.74369101  0.59877633  0.17615927    -0.15100
C1854       C  0.72491174  0.60664905  0.20173061    -0.30300
H1855       H  0.76202555  0.58488621  0.18275637     0.13900
H1856       H  0.70589499  0.61950217  0.19493887     0.14500
C1857       C  0.71813695  0.58773907  0.42992084    -0.15100
C1858       C  0.73969073  0.59124623  0.45363960    -0.30300
H1859       H  0.69824067  0.57625696  0.43703598     0.13900
H1860       H  0.75970019  0.60207916  0.44546078     0.14500
C1861       C  0.98383411  0.75745585  0.19786043    -0.15100
C1862       C  0.99730664  0.73071864  0.19609824    -0.30300
H1863       H  0.99673607  0.77743503  0.20119315     0.13900
H1864       H  0.48275953  0.70658475  0.19366195     0.14500
C1865       C  0.81157647  0.68670345  0.23114616    -0.15100
C1866       C  0.81485867  0.67812286  0.26509752    -0.30300
H1867       H  0.79377191  0.67837382  0.21496037     0.13900
H1868       H  0.83107194  0.68901959  0.28169238     0.14500
C1869       C  0.90202360  0.74812026  0.32298052    -0.15100
C1870       C  0.88315194  0.76302056  0.34340524    -0.30300
H1871       H  0.91384096  0.72959374  0.33404925     0.13900
H1872       H  0.86899709  0.77934929  0.33145639     0.14500
C1873       C  0.88450328  0.72865259  0.09333925    -0.15100
C1874       C  0.88489813  0.75045522  0.06886631    -0.30300
H1875       H  0.89183005  0.70668688  0.08628665     0.13900
H1876       H  0.87790249  0.77244823  0.07637128     0.14500
C1877       C  0.81673000  0.82392412  0.27507516    -0.15100
C1878       C  0.79180703  0.81353316  0.28919315    -0.30300
H1879       H  0.82445324  0.84575590  0.28267265     0.13900
H1880       H  0.78394195  0.79168051  0.28195781     0.14500
C1881       C  0.75646588  0.99096759  0.07343670    -0.15100
C1882       C  0.72099326  0.50027619  0.06772190    -0.30300
H1883       H  0.77590980  0.00427271  0.06965032     0.13900
H1884       H  0.71055706  0.99079629  0.07813438     0.14500
C1885       C  0.67353367  0.82320956  0.00337564    -0.15100
C1886       C  0.68401477  0.81830497  0.03625635    -0.30300
H1887       H  0.64981453  0.83779000  0.54141824     0.13900
H1888       H  0.67668210  0.79943619  0.05170762     0.14500
C1889       C  0.81085498  0.79622541  0.48323702    -0.15100
C1890       C  0.81862900  0.82149073  0.99653039    -0.30300
H1891       H  0.79049842  0.78773454  0.49373611     0.13900
H1892       H  0.84002632  0.82841260  0.98768032     0.14500
C1893       C  0.86731967  0.85266195  0.13525616    -0.15100
C1894       C  0.84582152  0.87248943  0.13976422    -0.30300
H1895       H  0.87426741  0.84761665  0.10832277     0.13900
H1896       H  0.83851070  0.87684895  0.16673915     0.14500
C1897       C  0.73649591  0.89398911  0.45220968    -0.15100
C1898       C  0.75777412  0.89767244  0.42826542    -0.30300
H1899       H  0.71589011  0.88454720  0.44364634     0.13900
H1900       H  0.77818675  0.90809375  0.43563790     0.14500
C1901       C  0.74615325  0.89079271  0.19914468    -0.15100
C1902       C  0.72462634  0.89074951  0.17490519    -0.30300
H1903       H  0.76768749  0.88350199  0.19161873     0.13900
H1904       H  0.70316441  0.89854742  0.18184451     0.14500
Fe1905     Fe  0.71820502  0.89213663  0.56529026     1.65800
Fe1906     Fe  0.76559588  0.83917740  0.58604296     1.73200
Fe1907     Fe  0.78954285  0.90265395  0.54775046     1.54400
O1908       O  0.77972647  0.90750715  0.99818381    -0.80400
O1909       O  0.80199246  0.85235748  0.61362062    -0.78700
O1910       O  0.73198425  0.91317967  0.00665052    -0.82900
O1911       O  0.72746424  0.93617265  0.56363433    -0.77700
O1912       O  0.80785880  0.86815852  0.51985849    -0.79500
O1913       O  0.74161287  0.85091516  0.63134956    -0.82200
C1914       C  0.74925184  0.95161781  0.57165972     0.98500
C1915       C  0.75407198  0.91078463  0.98656696     1.06000
O1916       O  0.75837651  0.87818523  0.56697462    -1.11200
O1917       O  0.73201371  0.82015657  0.55723004    -0.73700
O1918       O  0.69773475  0.85199400  0.56710363    -0.77100
O1919       O  0.77453924  0.94073020  0.57303731    -0.77800
C1920       C  0.70620010  0.82830185  0.55348163     0.97400
O1921       O  0.71817788  0.89339958  0.61938436    -0.75800
O1922       O  0.79009398  0.82652175  0.54319811    -0.81000
C1923       C  0.82019768  0.87344046  0.61242383     1.00100
C1924       C  0.80505699  0.84029664  0.52019084     1.06000
O1925       O  0.81788893  0.89508883  0.59083191    -0.76600
C1926       C  0.72829618  0.87441853  0.64095318     1.04300
Fe1927     Fe  0.89469969  0.72653100  0.71349452     1.65800
Fe1928     Fe  0.84142979  0.77058638  0.68460123     1.73200
Fe1929     Fe  0.90223932  0.80036143  0.72229112     1.54400
O1930       O  0.91317484  0.77874270  0.76952108    -0.80400
O1931       O  0.85168228  0.80799753  0.65703037    -0.78700
O1932       O  0.89177145  0.73420057  0.76761466    -0.82900
O1933       O  0.93722344  0.73858164  0.71362284    -0.77700
O1934       O  0.86684308  0.81709949  0.74950377    -0.79500
O1935       O  0.85669034  0.74625549  0.64077244    -0.82200
C1936       C  0.95168869  0.76031313  0.70253411     0.98500
C1937       C  0.90161814  0.75646480  0.78476288     1.06000
O1938       O  0.87946631  0.76620785  0.70609695    -1.11200
O1939       O  0.82230404  0.73571633  0.71079131    -0.73700
O1940       O  0.85692131  0.70319620  0.71599820    -0.77100
O1941       O  0.94014571  0.78545596  0.69754979    -0.77800
C1942       C  0.83101959  0.71065598  0.71986193     0.97400
O1943       O  0.89619403  0.72098225  0.65890927    -0.75800
O1944       O  0.82701210  0.79495949  0.72739392    -0.81000
C1945       C  0.87100204  0.82783506  0.65714372     1.00100
C1946       C  0.83974141  0.81155863  0.75001297     1.06000
O1947       O  0.89282629  0.82715559  0.67797036    -0.76600
C1948       C  0.87947369  0.73085667  0.63454159     1.04300
Fe1949     Fe  0.71864997  0.58737524  0.80604960     1.65800
Fe1950     Fe  0.76463193  0.63941224  0.83660461     1.73200
Fe1951     Fe  0.79006406  0.57981793  0.79197230     1.54400
O1952       O  0.77792273  0.54227349  0.82060781    -0.80400
O1953       O  0.79202877  0.65431317  0.79642556    -0.78700
O1954       O  0.73121342  0.54368210  0.80571484    -0.82900
O1955       O  0.72460326  0.59147216  0.75187048    -0.77700
O1956       O  0.82144807  0.59374373  0.82914845    -0.79500
O1957       O  0.73248121  0.66089074  0.80806278    -0.82200
C1958       C  0.74493630  0.57958013  0.73432568     0.98500
C1959       C  0.75334303  0.52957594  0.81602190     1.06000
O1960       O  0.75813056  0.60217969  0.81253664    -1.11200
O1961       O  0.73791712  0.62535353  0.87851138    -0.73700
O1962       O  0.71363494  0.58469535  0.86031833    -0.77100
O1963       O  0.76485518  0.56512706  0.74953246    -0.77800
C1964       C  0.72277752  0.60204676  0.88464976     0.97400
O1965       O  0.69779475  0.62739586  0.80487193    -0.75800
O1966       O  0.79889254  0.62381667  0.86649184    -0.81000
C1967       C  0.80294045  0.64286903  0.76842952     1.00100
C1968       C  0.82176337  0.61168450  0.85526704     1.05200
O1969       O  0.80234141  0.61539029  0.76163597    -0.76600
C1970       C  0.70709046  0.65322326  0.79929500     1.04300
Fe1971     Fe  0.88711658  0.76282134  0.95365779     1.65800
Fe1972     Fe  0.83428257  0.71447193  0.93480235     1.73200
Fe1973     Fe  0.89400604  0.69203882  0.98018534     1.54400
O1974       O  0.93238238  0.70308561  0.95291924    -0.80400
O1975       O  0.82025845  0.68972694  0.97767264    -0.78700
O1976       O  0.93007060  0.75178270  0.95755254    -0.82900
O1977       O  0.88586890  0.76159677  0.51226830    -0.77700
O1978       O  0.88274288  0.65852661  0.94325970    -0.79500
O1979       O  0.81579361  0.74887800  0.96168168    -0.82200
C1980       C  0.89322187  0.74163042  0.53422786     0.98500
C1981       C  0.94445398  0.72856274  0.95255559     1.06000
O1982       O  0.87206507  0.72242489  0.95554392    -1.11200
O1983       O  0.84544441  0.73893635  0.88958687    -0.73700
O1984       O  0.88947335  0.75901839  0.89900758    -0.77100
O1985       O  0.90570829  0.71792291  0.52420757    -0.77800
C1986       C  0.86941737  0.74971453  0.87827518     0.97400
O1987       O  0.84765758  0.78346857  0.94957636    -0.75800
O1988       O  0.84829814  0.67763613  0.90828875    -0.81000
C1989       C  0.83202831  0.67902838  0.50057127     1.00100
C1990       C  0.86394657  0.65625832  0.91823442     1.06000
O1991       O  0.85862652  0.67948155  0.50894745    -0.76600
C1992       C  0.82416714  0.77526853  0.96360294     1.04300
Fe1993     Fe  0.75392423  0.59334146  0.56731472     1.65800
Fe1994     Fe  0.70552434  0.64533794  0.58427850     1.73200
Fe1995     Fe  0.68454134  0.58227619  0.54272906     1.54400
O1996       O  0.70809028  0.57621205  0.99408250    -0.80400
O1997       O  0.67138532  0.62966416  0.61388804    -0.78700
O1998       O  0.75127615  0.59649558  0.00723414    -0.82900
O1999       O  0.74402466  0.54924042  0.56473354    -0.77700
O2000       O  0.67121738  0.61575805  0.50977553    -0.79500
O2001       O  0.73191243  0.63721620  0.62861598    -0.82200
C2002       C  0.72187529  0.53391058  0.57204450     0.98500
C2003       C  0.73184706  0.58880069  0.98488142     1.06000
O2004       O  0.71394790  0.60672185  0.56535474    -1.11200
O2005       O  0.73764497  0.66429849  0.55352922    -0.73700
O2006       O  0.77249910  0.63485317  0.56993532    -0.77100
O2007       O  0.69660049  0.54527372  0.57296601    -0.77800
C2008       C  0.76388324  0.65692940  0.55253980     0.97400
O2009       O  0.75022106  0.59190058  0.62155756    -0.75800
O2010       O  0.67846295  0.65630629  0.54257187    -0.81000
C2011       C  0.64978583  0.61440111  0.60356365     1.00100
C2012       C  0.66908529  0.64330344  0.51476568     1.06000
O2013       O  0.65153192  0.59508851  0.57868398    -0.76600
C2014       C  0.74126075  0.61285011  0.64124491     1.04300
Fe2015     Fe  0.58138906  0.76553798  0.70244706     1.65800
Fe2016     Fe  0.63478197  0.72008296  0.67898315     1.73200
Fe2017     Fe  0.57771123  0.69424086  0.72633589     1.54400
O2018       O  0.56652411  0.72321578  0.76701566    -0.80400
O2019       O  0.62219773  0.68143793  0.65374521    -0.78700
O2020       O  0.58897964  0.76606778  0.75606961    -0.82900
O2021       O  0.53960022  0.75143032  0.71055906    -0.77700
O2022       O  0.61396890  0.68339382  0.75561129    -0.79500
O2023       O  0.61844429  0.74307124  0.63418056    -0.82200
C2024       C  0.52605769  0.72812350  0.70209997     0.98500
C2025       C  0.58032170  0.74617003  0.77745557     1.06000
O2026       O  0.59784929  0.72582905  0.70159418    -1.11200
O2027       O  0.65270831  0.75669961  0.70435875    -0.73700
O2028       O  0.61889865  0.78906998  0.69344183    -0.77100
O2029       O  0.53905486  0.70346264  0.69924501    -0.77800
C2030       C  0.64365991  0.78291813  0.70486249     0.97400
O2031       O  0.57552572  0.76341729  0.64903442    -0.75800
O2032       O  0.65195757  0.69618018  0.72178075    -0.81000
C2033       C  0.60782446  0.65927393  0.66482949     1.00100
C2034       C  0.64105236  0.68426596  0.74956386     1.06000
O2035       O  0.58941870  0.66102678  0.69007032    -0.76600
C2036       C  0.59407491  0.75515590  0.62618378     1.04300
Fe2037     Fe  0.58765837  0.72072717  0.95264548     1.65800
Fe2038     Fe  0.63549129  0.76881386  0.91891869     1.73200
Fe2039     Fe  0.58687275  0.79121187  0.97931067     1.54400
O2040       O  0.54523177  0.78211405  0.95802725    -0.80400
O2041       O  0.65492651  0.79839559  0.95382641    -0.78700
O2042       O  0.54607087  0.73339283  0.96581726    -0.82900
O2043       O  0.58664059  0.72196307  0.50612819    -0.77700
O2044       O  0.59656135  0.82541449  0.94260252    -0.79500
O2045       O  0.65930277  0.73683152  0.94471296    -0.82200
C2046       C  0.57887753  0.74188147  0.52784281     0.98500
C2047       C  0.53222717  0.75696881  0.95979580     1.06000
O2048       O  0.60299205  0.76073473  0.94978229    -1.11200
O2049       O  0.61846545  0.74071700  0.88006496    -0.73700
O2050       O  0.57618648  0.72287771  0.90033524    -0.77100
O2051       O  0.56626114  0.76555927  0.51784235    -0.77800
C2052       C  0.59283922  0.73057276  0.87512739     0.97400
O2053       O  0.62647045  0.70206344  0.93876231    -0.75800
O2054       O  0.61332714  0.80239519  0.89480821    -0.81000
C2055       C  0.63944359  0.80620541  0.49895050     1.00100
C2056       C  0.60868101  0.82596399  0.91200327     1.06000
O2057       O  0.61255770  0.80566865  0.50561209    -0.76600
C2058       C  0.65056202  0.71087996  0.95085131     1.04300
Fe2059     Fe  0.76353420  0.89347661  0.81423887     1.65800
Fe2060     Fe  0.71855858  0.84083324  0.84432860     1.73200
Fe2061     Fe  0.69416213  0.89322246  0.78810722     1.54400
O2062       O  0.70139275  0.93493346  0.81137177    -0.80400
O2063       O  0.69258725  0.82076726  0.80632991    -0.78700
O2064       O  0.74921685  0.93572643  0.80401693    -0.82900
O2065       O  0.76457320  0.88281562  0.76082194    -0.77700
O2066       O  0.66139062  0.88180077  0.82426714    -0.79500
O2067       O  0.75214034  0.82020318  0.81796729    -0.82200
C2068       C  0.74490382  0.88925855  0.73853757     0.98500
C2069       C  0.72555573  0.94898282  0.80971019     1.06000
O2070       O  0.72473318  0.87632120  0.81670067    -1.11200
O2071       O  0.74476126  0.85783985  0.88527530    -0.73700
O2072       O  0.76175704  0.90217468  0.86779234    -0.77100
O2073       O  0.72270324  0.90387362  0.74767769    -0.77800
C2074       C  0.75630136  0.88306444  0.89172594     0.97400
O2075       O  0.78498142  0.85487137  0.82471527    -0.75800
O2076       O  0.68238200  0.85814705  0.86955108    -0.81000
C2077       C  0.68519470  0.82717336  0.77469228     1.00100
C2078       C  0.65993632  0.86794379  0.85377774     1.06000
O2079       O  0.68674297  0.85329716  0.76228846    -0.76600
C2080       C  0.77743528  0.83000141  0.81273596     1.04300
C2081       C  0.62448311  0.85307335  0.90058492    -0.15100
C2082       C  0.63087879  0.85796956  0.86618671    -0.30300
H2083       H  0.63722001  0.86425164  0.92095769     0.13900
H2084       H  0.61719362  0.84779544  0.84596814     0.14500
C2085       C  0.66091684  0.80689249  0.72099242    -0.15100
C2086       C  0.67405670  0.80272344  0.75241803    -0.30300
H2087       H  0.65836514  0.82911661  0.71065131     0.13900
H2088       H  0.67445133  0.78065259  0.76378937     0.14500
C2089       C  0.58753461  0.74939308  0.81518168    -0.15100
C2090       C  0.58207227  0.72786889  0.83873803    -0.30300
H2091       H  0.59970592  0.76891066  0.82334621     0.13900
H2092       H  0.56890337  0.70878094  0.83161857     0.14500
C2093       C  0.58571224  0.73738118  0.56569663    -0.15100
C2094       C  0.58647319  0.75991250  0.58879387    -0.30300
H2095       H  0.59246123  0.71556833  0.57428822     0.13900
H2096       H  0.57914520  0.78167820  0.58087670     0.14500
C2097       C  0.66718384  0.69166393  0.97481955    -0.15100
C2098       C  0.65463282  0.66099958  0.48738183    -0.30300
H2099       H  0.68705079  0.70012326  0.98676846     0.13900
H2100       H  0.63731226  0.65093062  0.47181016     0.14500
C2101       C  0.61719284  0.62975048  0.65203803    -0.15100
C2102       C  0.62106190  0.62374496  0.61727967    -0.30300
H2103       H  0.63023706  0.61764345  0.67111290     0.13900
H2104       H  0.60770892  0.63535853  0.59809056     0.14500
C2105       C  0.97643820  0.73180744  0.94855945    -0.15100
C2106       C  0.98998345  0.75865948  0.94649311    -0.30300
H2107       H  0.98925004  0.71184382  0.95035179     0.13900
H2108       H  0.97725194  0.77859980  0.94376908     0.14500
C2109       C  0.81199300  0.66530102  0.52622349    -0.15100
C2110       C  0.78419765  0.67341090  0.52948366    -0.30300
H2111       H  0.82068618  0.64827063  0.54348291     0.13900
H2112       H  0.77577776  0.69122020  0.51319393     0.14500
C2113       C  0.75040026  0.49710184  0.81974662    -0.15100
C2114       C  0.72679585  0.98184044  0.81270678    -0.30300
H2115       H  0.77019374  0.48460963  0.82343624     0.13900
H2116       H  0.70650502  0.99382884  0.81204547     0.14500
C2117       C  0.68826657  0.67424856  0.77986517    -0.15100
C2118       C  0.65983503  0.66859732  0.77519965    -0.30300
H2119       H  0.69824691  0.69312959  0.76683318     0.13900
H2120       H  0.64980958  0.65062190  0.78995419     0.14500
C2121       C  0.84990799  0.62368751  0.86845299    -0.15100
C2122       C  0.85598026  0.62687194  0.90331506    -0.30300
H2123       H  0.86058046  0.63864525  0.84997417     0.13900
H2124       H  0.84585781  0.61171672  0.92198864     0.14500
C2125       C  0.74074058  0.60891911  0.68013054    -0.15100
C2126       C  0.74608977  0.58276992  0.69552061    -0.30300
H2127       H  0.73439236  0.62759107  0.69648910     0.13900
H2128       H  0.75365516  0.56424639  0.67978204     0.14500
C2129       C  0.71639478  0.59396390  0.92185081    -0.15100
C2130       C  0.73715108  0.59573048  0.94700670    -0.30300
H2131       H  0.69534617  0.58443248  0.92805588     0.13900
H2132       H  0.75842107  0.60433132  0.93990372     0.14500
C2133       C  0.98321353  0.75585411  0.69801959    -0.15100
C2134       C  0.99550240  0.72866452  0.70083782    -0.30300
H2135       H  0.99680285  0.77544688  0.69575349     0.13900
H2136       H  0.48177232  0.70999563  0.69484732     0.14500
C2137       C  0.81105376  0.69016200  0.73789038    -0.15100
C2138       C  0.81843159  0.66193968  0.74330055    -0.30300
H2139       H  0.79141458  0.69891102  0.74968077     0.13900
H2140       H  0.83711016  0.65271154  0.72980876     0.14500
C2141       C  0.89900673  0.75719043  0.82381845    -0.15100
C2142       C  0.87366309  0.75022784  0.83934489    -0.30300
H2143       H  0.91701671  0.76561644  0.83955795     0.13900
H2144       H  0.85553341  0.74321875  0.82275657     0.14500
C2145       C  0.88773485  0.72499872  0.59714335    -0.15100
C2146       C  0.88621507  0.74638119  0.57230291    -0.30300
H2147       H  0.89708843  0.70376081  0.59054176     0.13900
H2148       H  0.87778206  0.76785377  0.57980126     0.14500
C2149       C  0.82238712  0.82540627  0.77819966    -0.15100
C2150       C  0.79744687  0.81329921  0.78992737    -0.30300
H2151       H  0.83017785  0.84616528  0.78923902     0.13900
H2152       H  0.79013584  0.79216685  0.77942168     0.14500
C2153       C  0.74493439  0.98360727  0.57703026    -0.15100
C2154       C  0.72624555  0.50169624  0.57714826    -0.30300
H2155       H  0.76431898  0.99737061  0.57739780     0.13900
H2156       H  0.69876476  0.98278122  0.57786880     0.14500
C2157       C  0.65863578  0.81984376  0.52567083    -0.15100
C2158       C  0.68603600  0.81093356  0.53106751    -0.30300
H2159       H  0.68323151  0.84050172  0.98713969     0.13900
H2160       H  0.69441366  0.79214669  0.51641558     0.14500
C2161       C  0.80691074  0.79620008  0.98440422    -0.15100
C2162       C  0.82034258  0.82313237  0.49299016    -0.30300
H2163       H  0.78567520  0.78907008  0.99358711     0.13900
H2164       H  0.84019331  0.83226487  0.48187997     0.14500
C2165       C  0.86635699  0.85228447  0.63160877    -0.15100
C2166       C  0.84464136  0.87149996  0.63799197    -0.30300
H2167       H  0.87090853  0.84682645  0.60400543     0.13900
H2168       H  0.83858571  0.87503617  0.66561925     0.14500
C2169       C  0.74951051  0.90949327  0.94788133    -0.15100
C2170       C  0.76425931  0.88971227  0.92854527    -0.30300
H2171       H  0.73153484  0.92138720  0.93607228     0.13900
H2172       H  0.77986478  0.87530694  0.94135208     0.14500
C2173       C  0.74767077  0.87949051  0.70132512    -0.15100
C2174       C  0.72504444  0.88099121  0.67882959    -0.30300
H2175       H  0.76818941  0.87048970  0.69240472     0.13900
H2176       H  0.70485393  0.89093920  0.68733534     0.14500
loop_ 
_geom_bond_atom_site_label_1 
_geom_bond_atom_site_label_2 
_geom_bond_distance 
_geom_bond_site_symmetry_2 
_ccdc_geom_bond_type 
Fe1          O17   2.053       .  S
Fe1           O7   2.034       .  S
Fe1          O14   2.047       .  S
Fe1         O278   2.053       .  S
Fe1          O12   1.959       .  S
Fe2           O5   2.050       .  S
Fe2           O9   2.079       .  S
Fe2          O13   2.063       .  S
Fe2          O18   2.039       .  S
Fe2          O12   1.949       .  S
Fe3          O21   2.109       .  S
Fe3           O8   2.080       .  S
Fe3          O15   2.099       .  S
Fe3         O276   2.089       .  S
Fe3          O12   1.965       .  S
O4         Fe275   2.083       .  S
O4           C11   1.278       .  A
O5           C19   1.265       .  A
O6         Fe273   2.055       .  S
O6           C11   1.275       .  A
O7           C10   1.258       .  A
O8           C20   1.273       .  A
O9           C22   1.280       .  A
C10          O15   1.274       .  A
C10         C249   1.484       .  S
C11         C265   1.469       .  S
O13          C16   1.257       .  A
O14          C16   1.256       .  A
C16         C254   1.477       .  S
O17          C22   1.276       .  A
O18          C20   1.267       .  A
C19          O21   1.276       .  A
C19         C262   1.484       .  S
C20         C258   1.467   1_554  S
C22         C270   1.464       .  S
Fe23         O39   2.058       .  S
Fe23         O29   2.057       .  S
Fe23         O36   2.060       .  S
Fe23         O28   2.061       .  S
Fe23         O34   1.959       .  S
Fe24         O27   2.051       .  S
Fe24         O31   2.100       .  S
Fe24         O35   2.049       .  S
Fe24         O40   2.053       .  S
Fe24         O34   1.943       .  S
Fe25         O43   2.118       .  S
Fe25         O30   2.072       .  S
Fe25         O37   2.102       .  S
Fe25         O26   2.099       .  S
Fe25         O34   1.947       .  S
O26          C33   1.285       .  A
O27          C41   1.268       .  A
O28          C33   1.278       .  A
O29          C32   1.259       .  A
O30          C42   1.268       .  A
O31          C44   1.283       .  A
C32          O37   1.273       .  A
C32         C229   1.493       .  S
C33         C237   1.480       .  S
O35          C38   1.253       .  A
O36          C38   1.258       .  A
C38         C233   1.471       .  S
O39          C44   1.279       .  A
O40          C42   1.267       .  A
C41          O43   1.282       .  A
C41         C261   1.485       .  S
C42         C245   1.471       .  S
C44         C241   1.476       .  S
Fe45         O61   2.061       .  S
Fe45         O51   2.063       .  S
Fe45         O58   2.060       .  S
Fe45         O50   2.063       .  S
Fe45         O56   1.950       .  S
Fe46         O49   2.087       .  S
Fe46         O53   2.062       .  S
Fe46         O57   2.098       .  S
Fe46         O62   2.055       .  S
Fe46         O56   1.932       .  S
Fe47         O65   2.049       .  S
Fe47         O52   2.126       .  S
Fe47         O59   2.088       .  S
Fe47         O48   2.100       .  S
Fe47         O56   1.954       .  S
O48          C55   1.283       .  A
O49          C63   1.279       .  A
O50          C55   1.268       .  A
O51          C54   1.271       .  A
O52          C64   1.279       .  A
O53          C66   1.260       .  A
C54          O59   1.272       .  A
C54         C222   1.472       .  S
C55         C209   1.489   1_545  S
O57          C60   1.283       .  A
O58          C60   1.274       .  A
C60         C225   1.479       .  S
O61          C66   1.262       .  A
O62          C64   1.263       .  A
C63          O65   1.269       .  A
C63         C234   1.468       .  S
C64         C217   1.497       .  S
C66         C213   1.478       .  S
Fe67         O83   2.051       .  S
Fe67         O80   2.041       .  S
Fe67         O72   2.044       .  S
Fe67        O345   2.058       .  S
Fe67         O78   1.960       .  S
Fe68         O71   2.091       .  S
Fe68         O75   2.083       .  S
Fe68         O79   2.125       .  S
Fe68         O84   2.073       .  S
Fe68         O78   1.926       .  S
Fe69         O74   2.115       .  S
Fe69         O70   2.102       .  S
Fe69        O359   2.049       .  S
Fe69        O353   2.102       .  S
Fe69         O78   1.940       .  S
O70          C77   1.274       .  A
O71         C357   1.277       .  A
O72          C77   1.259       .  A
O73        Fe339   2.067   1_554  S
O73          C76   1.273       .  A
O74          C86   1.281       .  A
O75          C88   1.262       .  A
C76          O81   1.271       .  A
C76         C242   1.471       .  S
C77         C201   1.485       .  S
O79          C82   1.292       .  A
O80          C82   1.277       .  A
O81        Fe341   2.085   1_554  S
C82         C238   1.473       .  S
O83          C88   1.249       .  A
O84          C86   1.271       .  A
C85          O87   1.274       .  A
C85         O343   1.278   1_554  A
C85         C205   1.474       .  S
C86         C218   1.496       .  S
O87        Fe341   2.068   1_554  S
C88         C257   1.475       .  S
Fe89        O105   2.050       .  S
Fe89         O95   2.044       .  S
Fe89        O102   2.060       .  S
Fe89        O366   2.052       .  S
Fe89        O100   1.954       .  S
Fe90         O93   2.058       .  S
Fe90         O97   2.103       .  S
Fe90        O101   2.059       .  S
Fe90        O106   2.072       .  S
Fe90        O100   1.936       .  S
Fe91        O109   2.102       .  S
Fe91         O96   2.065       .  S
Fe91        O103   2.096       .  S
Fe91        O364   2.083       .  S
Fe91        O100   1.950       .  S
O92        Fe363   2.102       .  S
O92          C99   1.280       .  A
O93         C107   1.269       .  A
O94        Fe361   2.050       .  S
O94          C99   1.271       .  A
O95          C98   1.262       .  A
O96         C108   1.270       .  A
O97         C110   1.283       .  A
C98         O103   1.276       .  A
C98         C250   1.484       .  S
C99         C226   1.479       .  S
O101        C104   1.258       .  A
O102        C104   1.259       .  A
C104        C206   1.475       .  S
O105        C110   1.276       .  A
O106        C108   1.273       .  A
C107        O109   1.276       .  A
C107        C198   1.482       .  S
C108        C194   1.472   1_554  S
C110        C221   1.477       .  S
Fe111       O127   2.037       .  S
Fe111       O117   2.048       .  S
Fe111       O124   2.050       .  S
Fe111       O116   2.064       .  S
Fe111       O122   1.954       .  S
Fe112       O115   2.060       .  S
Fe112       O119   2.118       .  S
Fe112       O123   2.083       .  S
Fe112       O128   2.080       .  S
Fe112       O122   1.925       .  S
Fe113       O131   2.098       .  S
Fe113       O118   2.059       .  S
Fe113       O125   2.098       .  S
Fe113       O114   2.091       .  S
Fe113       O122   1.937       .  S
O114        C121   1.282       .  A
O115        C129   1.270       .  A
O116        C121   1.278       .  A
O117        C120   1.259       .  A
O118        C130   1.269       .  A
O119        C132   1.290       .  A
C120        O125   1.273       .  A
C120       C1318   1.484       .  S
C121        C185   1.478       .  S
O123        C126   1.260       .  A
O124        C126   1.248       .  A
C126        C181   1.470       .  S
O127        C132   1.277       .  A
O128        C130   1.275       .  A
C129        O131   1.277       .  A
C129        C197   1.482       .  S
C130        C214   1.473       .  S
C132        C190   1.468       .  S
Fe133       O149   2.050       .  S
Fe133       O146   2.048       .  S
Fe133       O138   2.048       .  S
Fe133       O411   2.058       .  S
Fe133       O144   1.949       .  S
Fe134       O137   2.079       .  S
Fe134       O141   2.052       .  S
Fe134       O145   2.097       .  S
Fe134       O150   2.039       .  S
Fe134       O144   1.935       .  S
Fe135       O140   2.115       .  S
Fe135       O136   2.108       .  S
Fe135       O425   2.066       .  S
Fe135       O419   2.083       .  S
Fe135       O144   1.952       .  S
O136        C143   1.283       .  A
O137        C423   1.275       .  A
O138        C143   1.263       .  A
O139       Fe405   2.062   1_554  S
O139        C142   1.274       .  A
O140        C152   1.277       .  A
O141        C154   1.256       .  A
C142        O147   1.278       .  A
C142        C189   1.477       .  S
C143       C1290   1.489   1_455  S
O145        C148   1.282       .  A
O146        C148   1.273       .  A
O147       Fe407   2.084   1_554  S
C148        C186   1.470       .  S
O149        C154   1.259       .  A
O150        C152   1.262       .  A
C151        O153   1.268   1_556  A
C151        O409   1.274       .  A
C151        C253   1.471   1_556  S
C152        C177   1.484       .  S
O153       Fe407   2.059   1_554  S
C154        C193   1.467       .  S
Fe155       O171   2.050       .  S
Fe155       O161   2.072       .  S
Fe155       O168   2.059       .  S
Fe155       O160   2.064       .  S
Fe155       O166   1.956       .  S
Fe156       O159   2.062       .  S
Fe156       O163   2.072       .  S
Fe156       O167   2.076       .  S
Fe156       O172   2.079       .  S
Fe156       O166   1.939       .  S
Fe157       O175   2.084       .  S
Fe157       O162   2.092       .  S
Fe157       O169   2.058       .  S
Fe157       O158   2.104       .  S
Fe157       O166   1.944       .  S
O158        C165   1.283       .  A
O159        C173   1.270       .  A
O160        C165   1.269       .  A
O161        C164   1.270       .  A
O162        C174   1.273       .  A
O163        C176   1.264       .  A
C164        O169   1.267       .  A
C164        C269   1.471       .  S
C165        C210   1.493       .  S
O167        C170   1.278       .  A
O168        C170   1.274       .  A
C170        C266   1.467       .  S
O171        C176   1.259       .  A
O172        C174   1.272       .  A
C173        O175   1.276       .  A
C173        C182   1.476       .  S
C174        C178   1.487       .  S
C176        C246   1.474       .  S
C177        C178   1.344       .  D
C177        H179   1.086       .  S
C178        H180   1.087       .  S
C181        C182   1.339       .  D
C181        H183   1.087       .  S
C182        H184   1.088       .  S
C185        C186   1.347       .  D
C185        H187   1.087       .  S
C186        H188   1.086       .  S
C189        C190   1.345       .  D
C189        H191   1.087       .  S
C190        H192   1.086       .  S
C193        C466   1.340       .  D
C193        H195   1.087       .  S
C194        C465   1.346       .  D
C194        H196   1.086       .  S
C197        C198   1.342       .  D
C197        H199   1.087       .  S
C198        H200   1.086       .  S
C201        C202   1.362       .  D
C201        H203   1.086       .  S
C202       C1231   1.484       .  S
C202        H204   1.087       .  S
C205        C206   1.344       .  D
C205        H207   1.087       .  S
C206        H208   1.087       .  S
C209        C754   1.366       .  D
C209        H211   1.086       .  S
C210        C753   1.365       .  D
C210        H212   1.086       .  S
C213        C214   1.342       .  D
C213        H215   1.086       .  S
C214        H216   1.087       .  S
C217        C218   1.351       .  D
C217        H219   1.086       .  S
C218        H220   1.086       .  S
C221        C222   1.347       .  D
C221        H223   1.087       .  S
C222        H224   1.086       .  S
C225        C226   1.346       .  D
C225        H227   1.086       .  S
C226        H228   1.088       .  S
C229        C230   1.366       .  D
C229        H231   1.087       .  S
C230       C1208   1.496       .  S
C230       H1320   1.086       .  S
H232       C1318   1.087   1_655  S
C233        C234   1.340       .  D
C233        H235   1.088       .  S
C234        H236   1.087       .  S
C237        C238   1.344       .  D
C237        H239   1.087       .  S
C238        H240   1.086       .  S
C241        C242   1.344       .  D
C241        H243   1.087       .  S
C242        H244   1.086       .  S
C245        C246   1.347       .  D
C245        H247   1.086       .  S
C246        H248   1.087       .  S
C249        C794   1.363       .  D
C249        H251   1.087       .  S
C250        C793   1.362   1_545  D
C250        H796   1.087   1_545  S
H252        C794   1.087       .  S
C253        C254   1.343       .  D
C253        H527   1.087       .  S
C254        H256   1.086       .  S
H255        C525   1.086       .  S
C257        C530   1.338       .  D
C257        H259   1.087       .  S
C258        C529   1.349       .  D
C258        H260   1.086       .  S
C261        C262   1.354       .  D
C261        H263   1.086       .  S
C262        H264   1.087       .  S
C265        C266   1.345       .  D
C265        H267   1.087       .  S
C266        H268   1.086       .  S
C269        C270   1.348       .  D
C269        H271   1.087       .  S
C270        H272   1.086       .  S
Fe273       O289   2.048       .  S
Fe273       O279   2.034       .  S
Fe273       O286   2.053       .  S
Fe273       O284   1.959       .  S
Fe274       O277   2.054       .  S
Fe274       O281   2.075       .  S
Fe274       O285   2.071       .  S
Fe274       O290   2.038       .  S
Fe274       O284   1.947       .  S
Fe275       O293   2.113       .  S
Fe275       O280   2.097       .  S
Fe275       O287   2.117       .  S
Fe275       O284   1.954       .  S
O276        C283   1.276   1_554  A
O277        C291   1.269       .  A
O278        C283   1.276   1_554  A
O279        C282   1.258       .  A
O280        C292   1.276       .  A
O281        C294   1.276       .  A
C282        O287   1.279       .  A
C282        C521   1.492       .  S
C283        C537   1.468       .  S
O285        C288   1.261       .  A
O286        C288   1.257       .  A
C288        C526   1.477       .  S
O289        C294   1.272       .  A
O290        C292   1.263       .  A
C291        O293   1.278       .  A
C291        C534   1.481       .  S
C292        C530   1.475       .  S
C294        C542   1.461       .  S
Fe295       O311   2.096       .  S
Fe295       O301   2.030       .  S
Fe295       O308   2.017       .  S
Fe295       O300   2.079       .  S
Fe295       O306   1.953       .  S
Fe296       O299   2.059       .  S
Fe296       O303   2.068       .  S
Fe296       O307   2.072       .  S
Fe296       O312   2.079       .  S
Fe296       O306   1.959       .  S
Fe297       O315   2.100       .  S
Fe297       O302   2.108       .  S
Fe297       O309   2.125       .  S
Fe297       O298   2.055       .  S
Fe297       O306   1.950       .  S
O298        C305   1.271       .  A
O299        C313   1.265       .  A
O300        C305   1.275       .  A
O301        C304   1.259       .  A
O302        C314   1.281       .  A
O303        C316   1.279       .  A
C304        O309   1.281       .  A
C304        C501   1.494       .  S
C305        C509   1.474       .  S
O307        C310   1.259       .  A
O308        C310   1.254       .  A
C310        C505   1.462       .  S
O311        C316   1.281       .  A
O312        C314   1.276       .  A
C313        O315   1.274       .  A
C313        C533   1.484       .  S
C314        C517   1.489       .  S
C316        C513   1.480       .  S
Fe317       O333   2.065       .  S
Fe317       O323   2.062       .  S
Fe317       O330   2.053       .  S
Fe317       O322   2.073       .  S
Fe317       O328   1.948       .  S
Fe318       O321   2.057       .  S
Fe318       O325   2.075       .  S
Fe318       O329   2.079       .  S
Fe318       O334   2.066       .  S
Fe318       O328   1.932       .  S
Fe319       O337   2.067       .  S
Fe319       O324   2.116       .  S
Fe319       O331   2.077       .  S
Fe319       O320   2.105       .  S
Fe319       O328   1.931       .  S
O320        C327   1.284       .  A
O321        C335   1.268       .  A
O322        C327   1.270       .  A
O323        C326   1.270       .  A
O324        C336   1.278       .  A
O325        C338   1.264       .  A
C326        O331   1.273       .  A
C326        C494   1.475       .  S
C327        C481   1.493   1_545  S
O329        C332   1.278       .  A
O330        C332   1.272       .  A
C332        C497   1.467       .  S
O333        C338   1.264       .  A
O334        C336   1.270       .  A
C335        O337   1.272       .  A
C335        C506   1.455       .  S
C336        C489   1.493       .  S
C338        C485   1.483       .  S
Fe339       O355   2.035       .  S
Fe339       O352   2.051       .  S
Fe339       O344   2.040       .  S
Fe339       O350   1.949       .  S
Fe340       O343   2.079       .  S
Fe340       O347   2.069       .  S
Fe340       O351   2.097       .  S
Fe340       O356   2.067       .  S
Fe340       O350   1.932       .  S
Fe341       O346   2.103       .  S
Fe341       O342   2.109       .  S
Fe341       O350   1.949       .  S
O342        C349   1.282       .  A
O344        C349   1.262       .  A
O345        C348   1.276       .  A
O346        C358   1.275       .  A
O347        C360   1.261       .  A
C348        O353   1.283       .  A
C348        C514   1.480       .  S
C349        C473   1.484       .  S
O351        C354   1.283       .  A
O352        C354   1.274       .  A
C354        C510   1.463       .  S
O355        C360   1.254       .  A
O356        C358   1.268       .  A
C357        O359   1.267       .  A
C357        C477   1.472       .  S
C358        C490   1.492       .  S
C360        C529   1.469       .  S
Fe361       O377   2.042       .  S
Fe361       O367   2.057       .  S
Fe361       O374   2.056       .  S
Fe361       O372   1.960       .  S
Fe362       O365   2.058       .  S
Fe362       O369   2.100       .  S
Fe362       O373   2.064       .  S
Fe362       O378   2.068       .  S
Fe362       O372   1.939       .  S
Fe363       O381   2.118       .  S
Fe363       O368   2.048       .  S
Fe363       O375   2.095       .  S
Fe363       O372   1.950       .  S
O364        C371   1.276   1_554  A
O365        C379   1.268       .  A
O366        C371   1.273   1_554  A
O367        C370   1.264       .  A
O368        C380   1.266       .  A
O369        C382   1.283       .  A
C370        O375   1.276       .  A
C370        C522   1.485       .  S
C371        C498   1.468       .  S
O373        C376   1.258       .  A
O374        C376   1.260       .  A
C376        C478   1.478       .  S
O377        C382   1.272       .  A
O378        C380   1.273       .  A
C379        O381   1.280       .  A
C379        C470   1.493       .  S
C380        C466   1.463       .  S
C382        C493   1.469       .  S
Fe383       O399   2.044       .  S
Fe383       O389   2.051       .  S
Fe383       O396   2.058       .  S
Fe383       O388   2.064       .  S
Fe383       O394   1.954       .  S
Fe384       O387   2.062       .  S
Fe384       O391   2.109       .  S
Fe384       O395   2.072       .  S
Fe384       O400   2.082       .  S
Fe384       O394   1.928       .  S
Fe385       O403   2.122       .  S
Fe385       O390   2.067       .  S
Fe385       O397   2.117       .  S
Fe385       O386   2.102       .  S
Fe385       O394   1.935       .  S
O386        C393   1.288       .  A
O387        C401   1.271       .  A
O388        C393   1.281       .  A
O389        C392   1.258       .  A
O390        C402   1.268       .  A
O391        C404   1.288       .  A
C392        O397   1.276       .  A
C392       C1590   1.501   1_455  S
C393        C457   1.482       .  S
O395        C398   1.260       .  A
O396        C398   1.249       .  A
C398        C453   1.475       .  S
O399        C404   1.281       .  A
O400        C402   1.272       .  A
C401        O403   1.285       .  A
C401        C469   1.490       .  S
C402        C486   1.479       .  S
C404        C462   1.471       .  S
Fe405       O421   2.047       .  S
Fe405       O418   2.039       .  S
Fe405       O410   2.077       .  S
Fe405       O416   1.965       .  S
Fe406       O409   2.080       .  S
Fe406       O413   2.071       .  S
Fe406       O417   2.128       .  S
Fe406       O422   2.077       .  S
Fe406       O416   1.952       .  S
Fe407       O412   2.077       .  S
Fe407       O408   2.087       .  S
Fe407       O416   1.930       .  S
O408        C415   1.272       .  A
O410        C415   1.265       .  A
O411        C414   1.273       .  A
O412        C424   1.277       .  A
O413        C426   1.258       .  A
C414        O419   1.272       .  A
C414        C461   1.465       .  S
C415       C1562   1.490       .  S
O417        C420   1.291       .  A
O418        C420   1.275       .  A
C420        C458   1.472       .  S
O421        C426   1.254       .  A
O422        C424   1.269       .  A
C423        O425   1.272       .  A
C423        C525   1.473       .  S
C424        C449   1.480       .  S
C426        C465   1.475       .  S
Fe427       O443   2.053       .  S
Fe427       O433   2.078       .  S
Fe427       O440   2.065       .  S
Fe427       O432   2.063       .  S
Fe427       O438   1.958       .  S
Fe428       O431   2.028       .  S
Fe428       O435   2.096       .  S
Fe428       O439   2.077       .  S
Fe428       O444   2.110       .  S
Fe428       O438   1.956       .  S
Fe429       O447   2.105       .  S
Fe429       O434   2.069       .  S
Fe429       O441   2.051       .  S
Fe429       O430   2.112       .  S
Fe429       O438   1.934       .  S
O430        C437   1.282       .  A
O431        C445   1.262       .  A
O432        C437   1.265       .  A
O433        C436   1.274       .  A
O434        C446   1.273       .  A
O435        C448   1.266       .  A
C436        O441   1.267       .  A
C436        C541   1.471       .  S
C437        C482   1.497       .  S
O439        C442   1.277       .  A
O440        C442   1.277       .  A
C442        C538   1.468       .  S
O443        C448   1.259       .  A
O444        C446   1.278       .  A
C445        O447   1.277       .  A
C445        C454   1.471       .  S
C446        C450   1.491       .  S
C448        C518   1.493       .  S
C449        C450   1.355       .  D
C449        H451   1.088       .  S
C450        H452   1.088       .  S
C453        C454   1.336       .  D
C453        H455   1.086       .  S
C454        H456   1.089       .  S
C457        C458   1.345       .  D
C457        H459   1.086       .  S
C458        H460   1.086       .  S
C461        C462   1.342       .  D
C461        H463   1.086       .  S
C462        H464   1.088       .  S
C465        H467   1.087       .  S
C466        H468   1.087       .  S
C469        C470   1.349       .  D
C469        H471   1.087       .  S
C470        H472   1.086       .  S
C473        C474   1.368       .  D
C473        H475   1.086       .  S
C474       C1503   1.484       .  S
C474        H476   1.086       .  S
C477        C478   1.342       .  D
C477        H479   1.087       .  S
C478        H480   1.086       .  S
C481       C1026   1.367       .  D
C481        H483   1.086       .  S
C482       C1025   1.369       .  D
C482        H484   1.086       .  S
C485        C486   1.346       .  D
C485        H487   1.086       .  S
C486        H488   1.087       .  S
C489        C490   1.346       .  D
C489        H491   1.087       .  S
C490        H492   1.086       .  S
C493        C494   1.344       .  D
C493        H495   1.086       .  S
C494        H496   1.087       .  S
C497        C498   1.345       .  D
C497        H499   1.086       .  S
C498        H500   1.088       .  S
C501        C502   1.368       .  D
C501        H503   1.087       .  S
C502       C1480   1.493       .  S
C502       H1592   1.086       .  S
H504       C1590   1.087       .  S
C505        C506   1.338       .  D
C505        H507   1.086       .  S
C506        H508   1.089       .  S
C509        C510   1.345       .  D
C509        H511   1.088       .  S
C510        H512   1.086       .  S
C513        C514   1.349       .  D
C513        H515   1.086       .  S
C514        H516   1.087       .  S
C517        C518   1.354       .  D
C517        H519   1.087       .  S
C518        H520   1.086       .  S
C521       C1066   1.368       .  D
C521        H523   1.086       .  S
C522       C1065   1.362   1_545  D
C522       H1068   1.087   1_545  S
H524       C1066   1.086       .  S
C525        C526   1.347       .  D
C526        H528   1.086       .  S
C529        H531   1.086   1_556  S
C530        H532   1.089       .  S
C533        C534   1.352       .  D
C533        H535   1.086       .  S
C534        H536   1.088       .  S
C537        C538   1.341       .  D
C537        H539   1.086       .  S
C538        H540   1.088       .  S
C541        C542   1.350       .  D
C541        H543   1.087       .  S
C542        H544   1.086       .  S
Fe545       O561   2.057       .  S
Fe545       O551   2.025       .  S
Fe545       O558   2.018       .  S
Fe545       O822   2.058       .  S
Fe545       O556   1.972       .  S
Fe546       O549   2.069       .  S
Fe546       O553   2.078       .  S
Fe546       O557   2.068       .  S
Fe546       O562   2.055       .  S
Fe546       O556   1.959       .  S
Fe547       O565   2.106       .  S
Fe547       O552   2.071       .  S
Fe547       O559   2.095       .  S
Fe547       O820   2.079       .  S
Fe547       O556   1.963       .  S
O548       Fe819   2.059       .  S
O548        C555   1.273       .  A
O549        C563   1.268       .  A
O550       Fe817   2.065       .  S
O550        C555   1.273       .  A
O551        C554   1.255       .  A
O552        C564   1.268       .  A
O553        C566   1.280       .  A
C554        O559   1.271       .  A
C554        C793   1.481       .  S
C555        C809   1.466       .  S
O557        C560   1.260       .  A
O558        C560   1.253       .  A
C560        C798   1.472       .  S
O561        C566   1.274       .  A
O562        C564   1.268       .  A
C563        O565   1.279       .  A
C563        C806   1.488       .  S
C564        C802   1.465   1_554  S
C566        C814   1.464       .  S
Fe567       O583   2.098       .  S
Fe567       O573   2.031       .  S
Fe567       O580   2.021       .  S
Fe567       O572   2.071       .  S
Fe567       O578   1.942       .  S
Fe568       O571   2.069       .  S
Fe568       O575   2.057       .  S
Fe568       O579   2.082       .  S
Fe568       O584   2.064       .  S
Fe568       O578   1.948       .  S
Fe569       O587   2.105       .  S
Fe569       O574   2.101       .  S
Fe569       O581   2.116       .  S
Fe569       O570   2.069       .  S
Fe569       O578   1.943       .  S
O570        C577   1.270       .  A
O571        C585   1.262       .  A
O572        C577   1.273       .  A
O573        C576   1.260       .  A
O574        C586   1.283       .  A
O575        C588   1.280       .  A
C576        O581   1.280       .  A
C576        C773   1.487       .  S
C577        C781   1.471       .  S
O579        C582   1.259       .  A
O580        C582   1.253       .  A
C582        C777   1.468       .  S
O583        C588   1.282       .  A
O584        C586   1.279       .  A
C585        O587   1.273       .  A
C585        C805   1.489       .  S
C586        C789   1.474       .  S
C588        C785   1.469       .  S
Fe589       O605   2.064       .  S
Fe589       O595   2.065       .  S
Fe589       O602   2.052       .  S
Fe589       O594   2.076       .  S
Fe589       O600   1.954       .  S
Fe590       O593   2.058       .  S
Fe590       O597   2.079       .  S
Fe590       O601   2.082       .  S
Fe590       O606   2.073       .  S
Fe590       O600   1.935       .  S
Fe591       O609   2.073       .  S
Fe591       O596   2.111       .  S
Fe591       O603   2.074       .  S
Fe591       O592   2.098       .  S
Fe591       O600   1.933       .  S
O592        C599   1.282       .  A
O593        C607   1.268       .  A
O594        C599   1.271       .  A
O595        C598   1.269       .  A
O596        C608   1.278       .  A
O597        C610   1.266       .  A
C598        O603   1.272       .  A
C598        C766   1.476       .  S
C599        C753   1.490       .  S
O601        C604   1.278       .  A
O602        C604   1.271       .  A
C604        C769   1.468       .  S
O605        C610   1.264       .  A
O606        C608   1.272       .  A
C607        O609   1.272       .  A
C607        C778   1.459       .  S
C608        C761   1.493       .  S
C610        C757   1.484       .  S
Fe611       O627   2.058       .  S
Fe611       O889   2.061       .  S
Fe611       O624   2.060       .  S
Fe611       O616   2.060       .  S
Fe611       O622   1.958       .  S
Fe612       O615   2.081       .  S
Fe612       O619   2.054       .  S
Fe612       O623   2.103       .  S
Fe612       O628   2.053       .  S
Fe612       O622   1.938       .  S
Fe613       O903   2.055       .  S
Fe613       O618   2.122       .  S
Fe613       O897   2.098       .  S
Fe613       O614   2.115       .  S
Fe613       O622   1.941       .  S
O614        C621   1.280       .  A
O615        C901   1.273       .  A
O616        C621   1.262       .  A
O617       Fe883   2.053   1_554  S
O617        C620   1.268       .  A
O618        C630   1.284       .  A
O619        C632   1.257       .  A
C620        O625   1.271       .  A
C620        C786   1.471       .  S
C621        C745   1.499       .  S
O623        C626   1.283       .  A
O624        C626   1.277       .  A
O625       Fe885   2.069   1_554  S
C626        C782   1.477       .  S
O627        C632   1.259       .  A
O628        C630   1.269       .  A
C629        O887   1.273   1_554  A
C629        O631   1.273       .  A
C629        C749   1.472       .  S
C630        C762   1.490       .  S
O631       Fe885   2.076   1_554  S
C632        C801   1.468       .  S
Fe633       O649   2.037       .  S
Fe633       O639   2.045       .  S
Fe633       O646   2.047       .  S
Fe633       O910   2.048       .  S
Fe633       O644   1.960       .  S
Fe634       O637   2.057       .  S
Fe634       O641   2.107       .  S
Fe634       O645   2.070       .  S
Fe634       O650   2.070       .  S
Fe634       O644   1.938       .  S
Fe635       O653   2.112       .  S
Fe635       O640   2.048       .  S
Fe635       O647   2.096       .  S
Fe635       O908   2.102   1_554  S
Fe635       O644   1.947       .  S
O636       Fe907   2.093       .  S
O636        C643   1.280       .  A
O637        C651   1.269       .  A
O638       Fe905   2.045       .  S
O638        C643   1.273       .  A
O639        C642   1.260       .  A
O640        C652   1.266       .  A
O641        C654   1.285       .  A
C642        O647   1.274       .  A
C642        C794   1.482       .  S
C643        C770   1.468       .  S
O645        C648   1.258       .  A
O646        C648   1.256       .  A
C648        C750   1.477       .  S
O649        C654   1.273       .  A
O650        C652   1.273       .  A
C651        O653   1.280       .  A
C651        C742   1.489       .  S
C652        C738   1.463   1_554  S
C654        C765   1.467       .  S
Fe655       O671   2.052       .  S
Fe655       O661   2.052       .  S
Fe655       O668   2.055       .  S
Fe655       O660   2.072       .  S
Fe655       O666   1.952       .  S
Fe656       O659   2.058       .  S
Fe656       O663   2.118       .  S
Fe656       O667   2.067       .  S
Fe656       O672   2.083       .  S
Fe656       O666   1.925       .  S
Fe657       O675   2.114       .  S
Fe657       O662   2.071       .  S
Fe657       O669   2.112       .  S
Fe657       O658   2.090       .  S
Fe657       O666   1.935       .  S
O658        C665   1.282       .  A
O659        C673   1.270       .  A
O660        C665   1.281       .  A
O661        C664   1.259       .  A
O662        C674   1.271       .  A
O663        C676   1.290       .  A
C664        O669   1.277       .  A
C664       C1862   1.494   1_455  S
C665        C729   1.482       .  S
O667        C670   1.258       .  A
O668        C670   1.250       .  A
C670        C725   1.469       .  S
O671        C676   1.282       .  A
O672        C674   1.274       .  A
C673        O675   1.282       .  A
C673        C741   1.486       .  S
C674        C758   1.480       .  S
C676        C734   1.479       .  S
Fe677       O693   2.062       .  S
Fe677       O955   2.051       .  S
Fe677       O690   2.048       .  S
Fe677       O682   2.062       .  S
Fe677       O688   1.957       .  S
Fe678       O681   2.091       .  S
Fe678       O685   2.059       .  S
Fe678       O689   2.104       .  S
Fe678       O694   2.044       .  S
Fe678       O688   1.936       .  S
Fe679       O969   2.050       .  S
Fe679       O684   2.131       .  S
Fe679       O963   2.093       .  S
Fe679       O680   2.112       .  S
Fe679       O688   1.946       .  S
O680        C687   1.283       .  A
O681        C967   1.276       .  A
O682        C687   1.265       .  A
O683       Fe949   2.066   1_554  S
O683        C686   1.272       .  A
O684        C696   1.283       .  A
O685        C698   1.259       .  A
C686        O691   1.272       .  A
C686        C733   1.474       .  S
C687       C1834   1.496   1_455  S
O689        C692   1.283       .  A
O690        C692   1.273       .  A
O691       Fe951   2.088   1_554  S
C692        C730   1.474       .  S
O693        C698   1.261       .  A
O694        C696   1.264       .  A
C695        O953   1.277       .  A
C695        O697   1.270   1_556  A
C695        C797   1.463   1_556  S
C696        C721   1.493       .  S
O697       Fe951   2.051   1_554  S
C698        C737   1.473       .  S
Fe699       O715   2.051       .  S
Fe699       O705   2.056       .  S
Fe699       O712   2.041       .  S
Fe699       O704   2.059       .  S
Fe699       O710   1.954       .  S
Fe700       O703   2.063       .  S
Fe700       O707   2.076       .  S
Fe700       O711   2.095       .  S
Fe700       O716   2.085       .  S
Fe700       O710   1.936       .  S
Fe701       O719   2.073       .  S
Fe701       O706   2.102       .  S
Fe701       O713   2.074       .  S
Fe701       O702   2.105       .  S
Fe701       O710   1.936       .  S
O702        C709   1.282       .  A
O703        C717   1.270       .  A
O704        C709   1.267       .  A
O705        C708   1.268       .  A
O706        C718   1.276       .  A
O707        C720   1.263       .  A
C708        O713   1.272       .  A
C708        C813   1.470       .  S
C709        C754   1.488       .  S
O711        C714   1.280       .  A
O712        C714   1.270       .  A
C714        C810   1.457       .  S
O715        C720   1.260       .  A
O716        C718   1.274       .  A
C717        O719   1.274       .  A
C717        C726   1.470       .  S
C718        C722   1.495       .  S
C720        C790   1.480       .  S
C721        C722   1.349       .  D
C721        H723   1.086       .  S
C722        H724   1.087       .  S
C725        C726   1.339       .  D
C725        H727   1.087       .  S
C726        H728   1.088       .  S
C729        C730   1.349       .  D
C729        H731   1.087       .  S
C730        H732   1.086       .  S
C733        C734   1.346       .  D
C733        H735   1.086       .  S
C734        H736   1.087       .  S
C737       C1010   1.343       .  D
C737        H739   1.087       .  S
C738       C1009   1.339       .  D
C738        H740   1.087       .  S
C741        C742   1.346       .  D
C741        H743   1.087       .  S
C742        H744   1.086       .  S
C745        C746   1.370       .  D
C745        H747   1.086       .  S
C746       C1775   1.500       .  S
C746        H748   1.086       .  S
C749        C750   1.345       .  D
C749        H751   1.087       .  S
C750        H752   1.086       .  S
C753        H755   1.086       .  S
C754        H756   1.086       .  S
C757        C758   1.347       .  D
C757        H759   1.086       .  S
C758        H760   1.086       .  S
C761        C762   1.348       .  D
C761        H763   1.087       .  S
C762        H764   1.086       .  S
C765        C766   1.345       .  D
C765        H767   1.086       .  S
C766        H768   1.087       .  S
C769        C770   1.344       .  D
C769        H771   1.086       .  S
C770        H772   1.088       .  S
C773        C774   1.365       .  D
C773        H775   1.087       .  S
C774       C1752   1.487       .  S
C774       H1864   1.087       .  S
H776       C1862   1.087       .  S
C777        C778   1.340       .  D
C777        H779   1.086       .  S
C778        H780   1.088       .  S
C781        C782   1.346       .  D
C781        H783   1.086       .  S
C782        H784   1.088       .  S
C785        C786   1.345       .  D
C785        H787   1.086       .  S
C786        H788   1.088       .  S
C789        C790   1.347       .  D
C789        H791   1.086       .  S
C790        H792   1.086       .  S
C793        H795   1.087   1_565  S
C797        C798   1.344       .  D
C797       H1071   1.086       .  S
C798        H800   1.086       .  S
H799       C1069   1.087       .  S
C801       C1074   1.346       .  D
C801        H803   1.087       .  S
C802       C1073   1.342       .  D
C802        H804   1.087       .  S
C805        C806   1.358       .  D
C805        H807   1.086       .  S
C806        H808   1.087       .  S
C809        C810   1.341       .  D
C809        H811   1.087       .  S
C810        H812   1.087       .  S
C813        C814   1.344       .  D
C813        H815   1.087       .  S
C814        H816   1.087       .  S
Fe817       O833   2.070       .  S
Fe817       O823   2.031       .  S
Fe817       O830   2.035       .  S
Fe817       O828   1.969       .  S
Fe818       O821   2.063       .  S
Fe818       O825   2.059       .  S
Fe818       O829   2.067       .  S
Fe818       O834   2.037       .  S
Fe818       O828   1.961       .  S
Fe819       O837   2.095       .  S
Fe819       O824   2.092       .  S
Fe819       O831   2.102       .  S
Fe819       O828   1.967       .  S
O820        C827   1.279   1_554  A
O821        C835   1.266       .  A
O822        C827   1.274   1_554  A
O823        C826   1.259       .  A
O824        C836   1.274       .  A
O825        C838   1.276       .  A
C826        O831   1.274       .  A
C826       C1065   1.486       .  S
C827       C1081   1.472       .  S
O829        C832   1.260       .  A
O830        C832   1.257       .  A
C832       C1070   1.476       .  S
O833        C838   1.275       .  A
O834        C836   1.267       .  A
C835        O837   1.274       .  A
C835       C1078   1.481       .  S
C836       C1074   1.472       .  S
C838       C1086   1.465       .  S
Fe839       O855   2.066       .  S
Fe839       O845   2.026       .  S
Fe839       O852   2.016       .  S
Fe839       O844   2.064       .  S
Fe839       O850   1.971       .  S
Fe840       O843   2.073       .  S
Fe840       O847   2.095       .  S
Fe840       O851   2.081       .  S
Fe840       O856   2.077       .  S
Fe840       O850   1.960       .  S
Fe841       O859   2.090       .  S
Fe841       O846   2.084       .  S
Fe841       O853   2.096       .  S
Fe841       O842   2.063       .  S
Fe841       O850   1.962       .  S
O842        C849   1.275       .  A
O843        C857   1.269       .  A
O844        C849   1.273       .  A
O845        C848   1.256       .  A
O846        C858   1.272       .  A
O847        C860   1.282       .  A
C848        O853   1.272       .  A
C848       C1045   1.481       .  S
C849       C1053   1.469       .  S
O851        C854   1.263       .  A
O852        C854   1.253       .  A
C854       C1049   1.475       .  S
O855        C860   1.275       .  A
O856        C858   1.271       .  A
C857        O859   1.274       .  A
C857       C1077   1.481       .  S
C858       C1061   1.480       .  S
C860       C1057   1.478       .  S
Fe861       O877   2.056       .  S
Fe861       O867   2.060       .  S
Fe861       O874   2.064       .  S
Fe861       O866   2.065       .  S
Fe861       O872   1.962       .  S
Fe862       O865   2.070       .  S
Fe862       O869   2.070       .  S
Fe862       O873   2.091       .  S
Fe862       O878   2.069       .  S
Fe862       O872   1.948       .  S
Fe863       O881   2.069       .  S
Fe863       O868   2.115       .  S
Fe863       O875   2.081       .  S
Fe863       O864   2.111       .  S
Fe863       O872   1.964       .  S
O864        C871   1.284       .  A
O865        C879   1.275       .  A
O866        C871   1.267       .  A
O867        C870   1.270       .  A
O868        C880   1.277       .  A
O869        C882   1.260       .  A
C870        O875   1.269       .  A
C870       C1038   1.469       .  S
C871       C1025   1.498       .  S
O873        C876   1.283       .  A
O874        C876   1.276       .  A
C876       C1041   1.476       .  S
O877        C882   1.260       .  A
O878        C880   1.267       .  A
C879        O881   1.274       .  A
C879       C1050   1.468       .  S
C880       C1033   1.499       .  S
C882       C1029   1.484       .  S
Fe883       O899   2.027       .  S
Fe883       O896   2.066       .  S
Fe883       O888   2.043       .  S
Fe883       O894   1.977       .  S
Fe884       O887   2.067       .  S
Fe884       O891   2.060       .  S
Fe884       O895   2.073       .  S
Fe884       O900   2.057       .  S
Fe884       O894   1.967       .  S
Fe885       O890   2.112       .  S
Fe885       O886   2.122       .  S
Fe885       O894   1.971       .  S
O886        C893   1.282       .  A
O888        C893   1.261       .  A
O889        C892   1.275       .  A
O890        C902   1.279       .  A
O891        C904   1.258       .  A
C892        O897   1.282       .  A
C892       C1058   1.483       .  S
C893       C1017   1.498       .  S
O895        C898   1.280       .  A
O896        C898   1.274       .  A
C898       C1054   1.463       .  S
O899        C904   1.256       .  A
O900        C902   1.263       .  A
C901        O903   1.266       .  A
C901       C1021   1.473       .  S
C902       C1034   1.496       .  S
C904       C1073   1.471       .  S
Fe905       O921   2.049       .  S
Fe905       O911   2.054       .  S
Fe905       O918   2.068       .  S
Fe905       O916   1.954       .  S
Fe906       O909   2.050       .  S
Fe906       O913   2.100       .  S
Fe906       O917   2.054       .  S
Fe906       O922   2.074       .  S
Fe906       O916   1.933       .  S
Fe907       O925   2.126       .  S
Fe907       O912   2.057       .  S
Fe907       O919   2.105       .  S
Fe907       O916   1.941       .  S
O908        C915   1.282       .  A
O909        C923   1.267       .  A
O910        C915   1.273   1_554  A
O911        C914   1.262       .  A
O912        C924   1.267       .  A
O913        C926   1.282       .  A
C914        O919   1.280       .  A
C914       C1066   1.489       .  S
C915       C1042   1.476       .  S
O917        C920   1.256       .  A
O918        C920   1.262       .  A
C920       C1022   1.475       .  S
O921        C926   1.275       .  A
O922        C924   1.273       .  A
C923        O925   1.283       .  A
C923       C1014   1.490       .  S
C924       C1010   1.470       .  S
C926       C1037   1.474       .  S
Fe927       O943   2.035       .  S
Fe927       O933   2.037       .  S
Fe927       O940   2.048       .  S
Fe927       O932   2.053       .  S
Fe927       O938   1.958       .  S
Fe928       O931   2.074       .  S
Fe928       O935   2.121       .  S
Fe928       O939   2.086       .  S
Fe928       O944   2.094       .  S
Fe928       O938   1.926       .  S
Fe929       O947   2.104       .  S
Fe929       O934   2.063       .  S
Fe929       O941   2.104       .  S
Fe929       O930   2.092       .  S
Fe929       O938   1.940       .  S
O930        C937   1.280       .  A
O931        C945   1.271       .  A
O932        C937   1.275       .  A
O933        C936   1.258       .  A
O934        C946   1.271       .  A
O935        C948   1.290       .  A
C936        O941   1.276       .  A
C936       C2134   1.481   1_455  S
C937       C1001   1.471       .  S
O939        C942   1.263       .  A
O940        C942   1.251       .  A
C942        C997   1.471       .  S
O943        C948   1.274       .  A
O944        C946   1.278       .  A
C945        O947   1.278       .  A
C945       C1013   1.491       .  S
C946       C1030   1.479       .  S
C948       C1006   1.469       .  S
Fe949       O965   2.052       .  S
Fe949       O962   2.052       .  S
Fe949       O954   2.063       .  S
Fe949       O960   1.946       .  S
Fe950       O953   2.080       .  S
Fe950       O957   2.054       .  S
Fe950       O961   2.088       .  S
Fe950       O966   2.053       .  S
Fe950       O960   1.932       .  S
Fe951       O956   2.120       .  S
Fe951       O952   2.103       .  S
Fe951       O960   1.948       .  S
O952        C959   1.283       .  A
O954        C959   1.268       .  A
O955        C958   1.271       .  A
O956        C968   1.277       .  A
O957        C970   1.258       .  A
C958        O963   1.279       .  A
C958       C1005   1.475       .  S
C959       C2106   1.491   1_455  S
O961        C964   1.281       .  A
O962        C964   1.273       .  A
C964       C1002   1.468       .  S
O965        C970   1.261       .  A
O966        C968   1.262       .  A
C967        O969   1.267       .  A
C967       C1069   1.468       .  S
C968        C993   1.492       .  S
C970       C1009   1.469       .  S
Fe971       O987   2.054       .  S
Fe971       O977   2.050       .  S
Fe971       O984   2.043       .  S
Fe971       O976   2.065       .  S
Fe971       O982   1.959       .  S
Fe972       O975   2.070       .  S
Fe972       O979   2.078       .  S
Fe972       O983   2.097       .  S
Fe972       O988   2.075       .  S
Fe972       O982   1.938       .  S
Fe973       O991   2.080       .  S
Fe973       O978   2.109       .  S
Fe973       O985   2.072       .  S
Fe973       O974   2.110       .  S
Fe973       O982   1.939       .  S
O974        C981   1.285       .  A
O975        C989   1.271       .  A
O976        C981   1.269       .  A
O977        C980   1.266       .  A
O978        C990   1.277       .  A
O979        C992   1.263       .  A
C980        O985   1.271       .  A
C980       C1085   1.467       .  S
C981       C1026   1.494       .  S
O983        C986   1.282       .  A
O984        C986   1.270       .  A
C986       C1082   1.465       .  S
O987        C992   1.261       .  A
O988        C990   1.271       .  A
C989        O991   1.275       .  A
C989        C998   1.478       .  S
C990        C994   1.494       .  S
C992       C1062   1.484       .  S
C993        C994   1.348       .  D
C993        H995   1.086       .  S
C994        H996   1.087       .  S
C997        C998   1.341       .  D
C997        H999   1.086       .  S
C998       H1000   1.088       .  S
C1001      C1002   1.345       .  D
C1001      H1003   1.087       .  S
C1002      H1004   1.086       .  S
C1005      C1006   1.342       .  D
C1005      H1007   1.087       .  S
C1006      H1008   1.086       .  S
C1009      H1011   1.087       .  S
C1010      H1012   1.086       .  S
C1013      C1014   1.348       .  D
C1013      H1015   1.087       .  S
C1014      H1016   1.086       .  S
C1017      C1018   1.369       .  D
C1017      H1019   1.086       .  S
C1018      C2047   1.498       .  S
C1018      H1020   1.086       .  S
C1021      C1022   1.341       .  D
C1021      H1023   1.087       .  S
C1022      H1024   1.087       .  S
C1025      H1027   1.086       .  S
C1026      H1028   1.086       .  S
C1029      C1030   1.345       .  D
C1029      H1031   1.086       .  S
C1030      H1032   1.087       .  S
C1033      C1034   1.350       .  D
C1033      H1035   1.086       .  S
C1034      H1036   1.086       .  S
C1037      C1038   1.345       .  D
C1037      H1039   1.087       .  S
C1038      H1040   1.086       .  S
C1041      C1042   1.345       .  D
C1041      H1043   1.086       .  S
C1042      H1044   1.087       .  S
C1045      C1046   1.362       .  D
C1045      H1047   1.087       .  S
C1046      C2024   1.484       .  S
C1046      H2136   1.087       .  S
H1048      C2134   1.087       .  S
C1049      C1050   1.348       .  D
C1049      H1051   1.087       .  S
C1050      H1052   1.087       .  S
C1053      C1054   1.341       .  D
C1053      H1055   1.088       .  S
C1054      H1056   1.086       .  S
C1057      C1058   1.347       .  D
C1057      H1059   1.086       .  S
C1058      H1060   1.087       .  S
C1061      C1062   1.348       .  D
C1061      H1063   1.086       .  S
C1062      H1064   1.086       .  S
C1065      H1067   1.087   1_565  S
C1069      C1070   1.341       .  D
C1070      H1072   1.086       .  S
C1073      H1075   1.086       .  S
C1074      H1076   1.086       .  S
C1077      C1078   1.352       .  D
C1077      H1079   1.087       .  S
C1078      H1080   1.087       .  S
C1081      C1082   1.341       .  D
C1081      H1083   1.088       .  S
C1082      H1084   1.086       .  S
C1085      C1086   1.344       .  D
C1085      H1087   1.087       .  S
C1086      H1088   1.087       .  S
Fe1089     O1105   2.032       .  S
Fe1089     O1095   2.037       .  S
Fe1089     O1102   2.062       .  S
Fe1089     O1366   2.033       .  S
Fe1089     O1100   1.957       .  S
Fe1090     O1093   2.067       .  S
Fe1090     O1097   2.107       .  S
Fe1090     O1101   2.065       .  S
Fe1090     O1106   2.064       .  S
Fe1090     O1100   1.937       .  S
Fe1091     O1109   2.114       .  S
Fe1091     O1096   2.074       .  S
Fe1091     O1103   2.098       .  S
Fe1091     O1364   2.091       .  S
Fe1091     O1100   1.946       .  S
O1092     Fe1363   2.078       .  S
O1092      C1099   1.275       .  A
O1093      C1107   1.273       .  A
O1094     Fe1361   2.057       .  S
O1094      C1099   1.272       .  A
O1095      C1098   1.257       .  A
O1096      C1108   1.269       .  A
O1097      C1110   1.283       .  A
C1098      O1103   1.272       .  A
C1098      C1337   1.485       .  S
C1099      C1353   1.472       .  S
O1101      C1104   1.258       .  A
O1102      C1104   1.257       .  A
C1104      C1342   1.475       .  S
O1105      C1110   1.273       .  A
O1106      C1108   1.269       .  A
C1107      O1109   1.281       .  A
C1107      C1350   1.488       .  S
C1108      C1346   1.475   1_554  S
C1110      C1358   1.457       .  S
Fe1111     O1127   2.077       .  S
Fe1111     O1117   2.038       .  S
Fe1111     O1124   2.039       .  S
Fe1111     O1116   2.066       .  S
Fe1111     O1122   1.965       .  S
Fe1112     O1115   2.033       .  S
Fe1112     O1119   2.098       .  S
Fe1112     O1123   2.043       .  S
Fe1112     O1128   2.069       .  S
Fe1112     O1122   1.955       .  S
Fe1113     O1131   2.116       .  S
Fe1113     O1118   2.076       .  S
Fe1113     O1125   2.100       .  S
Fe1113     O1114   2.093       .  S
Fe1113     O1122   1.973       .  S
O1114      C1121   1.275       .  A
O1115      C1129   1.258       .  A
O1116      C1121   1.275       .  A
O1117      C1120   1.260       .  A
O1118      C1130   1.274       .  A
O1119      C1132   1.285       .  A
C1120      O1125   1.275       .  A
C1120      C1317   1.485       .  S
C1121      C1325   1.478       .  S
O1123      C1126   1.252       .  A
O1124      C1126   1.255       .  A
C1126      C1321   1.465       .  S
O1127      C1132   1.279       .  A
O1128      C1130   1.275       .  A
C1129      O1131   1.276       .  A
C1129      C1349   1.488       .  S
C1130      C1333   1.468       .  S
C1132      C1329   1.480       .  S
Fe1133     O1149   2.068       .  S
Fe1133     O1139   2.060       .  S
Fe1133     O1146   2.058       .  S
Fe1133     O1138   2.072       .  S
Fe1133     O1144   1.954       .  S
Fe1134     O1137   2.070       .  S
Fe1134     O1141   2.054       .  S
Fe1134     O1145   2.091       .  S
Fe1134     O1150   2.052       .  S
Fe1134     O1144   1.930       .  S
Fe1135     O1153   2.048       .  S
Fe1135     O1140   2.112       .  S
Fe1135     O1147   2.087       .  S
Fe1135     O1136   2.090       .  S
Fe1135     O1144   1.939       .  S
O1136      C1143   1.275       .  A
O1137      C1151   1.272       .  A
O1138      C1143   1.266       .  A
O1139      C1142   1.273       .  A
O1140      C1152   1.280       .  A
O1141      C1154   1.259       .  A
C1142      O1147   1.279       .  A
C1142      C1310   1.477       .  S
C1143      C1297   1.488       .  S
O1145      C1148   1.280       .  A
O1146      C1148   1.277       .  A
C1148      C1313   1.472       .  S
O1149      C1154   1.262       .  A
O1150      C1152   1.269       .  A
C1151      O1153   1.265       .  A
C1151      C1322   1.462       .  S
C1152      C1305   1.483       .  S
C1154      C1301   1.472       .  S
Fe1155     O1171   2.049       .  S
Fe1155     O1433   2.086       .  S
Fe1155     O1168   2.075       .  S
Fe1155     O1160   2.047       .  S
Fe1155     O1166   1.947       .  S
Fe1156     O1159   2.069       .  S
Fe1156     O1163   2.066       .  S
Fe1156     O1167   2.092       .  S
Fe1156     O1172   2.067       .  S
Fe1156     O1166   1.935       .  S
Fe1157     O1447   2.077       .  S
Fe1157     O1162   2.100       .  S
Fe1157     O1441   2.083       .  S
Fe1157     O1158   2.109       .  S
Fe1157     O1166   1.946       .  S
O1158      C1165   1.281       .  A
O1159      C1445   1.273       .  A
O1160      C1165   1.262       .  A
O1161     Fe1427   2.061   1_554  S
O1161      C1164   1.271       .  A
O1162      C1174   1.275       .  A
O1163      C1176   1.260       .  A
C1164      O1169   1.276       .  A
C1164      C1330   1.483       .  S
C1165      C1289   1.489       .  S
O1167      C1170   1.281       .  A
O1168      C1170   1.280       .  A
O1169     Fe1429   2.091   1_554  S
C1170      C1326   1.479       .  S
O1171      C1176   1.257       .  A
O1172      C1174   1.270       .  A
C1173      O1431   1.274       .  A
C1173      O1175   1.267   1_556  A
C1173      C1293   1.467   1_556  S
C1174      C1306   1.485       .  S
O1175     Fe1429   2.054   1_554  S
C1176      C1345   1.473       .  S
Fe1177     O1193   2.037       .  S
Fe1177     O1183   2.054       .  S
Fe1177     O1190   2.050       .  S
Fe1177     O1454   2.048       .  S
Fe1177     O1188   1.955       .  S
Fe1178     O1181   2.054       .  S
Fe1178     O1185   2.111       .  S
Fe1178     O1189   2.065       .  S
Fe1178     O1194   2.081       .  S
Fe1178     O1188   1.934       .  S
Fe1179     O1197   2.119       .  S
Fe1179     O1184   2.040       .  S
Fe1179     O1191   2.092       .  S
Fe1179     O1452   2.101       .  S
Fe1179     O1188   1.939       .  S
O1180     Fe1451   2.087       .  S
O1180      C1187   1.271       .  A
O1181      C1195   1.267       .  A
O1182     Fe1449   2.056       .  S
O1182      C1187   1.271       .  A
O1183      C1186   1.265       .  A
O1184      C1196   1.266       .  A
O1185      C1198   1.286       .  A
C1186      O1191   1.276       .  A
C1186      C1338   1.481       .  S
C1187      C1314   1.469       .  S
O1189      C1192   1.257       .  A
O1190      C1192   1.259       .  A
C1192      C1294   1.476       .  S
O1193      C1198   1.271       .  A
O1194      C1196   1.276       .  A
C1195      O1197   1.280       .  A
C1195      C1286   1.490       .  S
C1196      C1282   1.463   1_554  S
C1198      C1309   1.469       .  S
Fe1199     O1215   2.058       .  S
Fe1199     O1205   2.049       .  S
Fe1199     O1212   2.055       .  S
Fe1199     O1204   2.071       .  S
Fe1199     O1210   1.950       .  S
Fe1200     O1203   2.067       .  S
Fe1200     O1207   2.099       .  S
Fe1200     O1211   2.080       .  S
Fe1200     O1216   2.059       .  S
Fe1200     O1210   1.929       .  S
Fe1201     O1219   2.115       .  S
Fe1201     O1206   2.066       .  S
Fe1201     O1213   2.113       .  S
Fe1201     O1202   2.096       .  S
Fe1201     O1210   1.939       .  S
O1202      C1209   1.284       .  A
O1203      C1217   1.273       .  A
O1204      C1209   1.281       .  A
O1205      C1208   1.259       .  A
O1206      C1218   1.268       .  A
O1207      C1220   1.284       .  A
C1208      O1213   1.276       .  A
C1209      C1273   1.484       .  S
O1211      C1214   1.260       .  A
O1212      C1214   1.251       .  A
C1214      C1269   1.477       .  S
O1215      C1220   1.282       .  A
O1216      C1218   1.269       .  A
C1217      O1219   1.283       .  A
C1217      C1285   1.489       .  S
C1218      C1302   1.472       .  S
C1220      C1278   1.473       .  S
Fe1221     O1237   2.057       .  S
Fe1221     O1499   2.053       .  S
Fe1221     O1234   2.046       .  S
Fe1221     O1226   2.060       .  S
Fe1221     O1232   1.953       .  S
Fe1222     O1225   2.088       .  S
Fe1222     O1229   2.060       .  S
Fe1222     O1233   2.115       .  S
Fe1222     O1238   2.045       .  S
Fe1222     O1232   1.931       .  S
Fe1223     O1513   2.038       .  S
Fe1223     O1228   2.125       .  S
Fe1223     O1507   2.094       .  S
Fe1223     O1224   2.091       .  S
Fe1223     O1232   1.943       .  S
O1224      C1231   1.277       .  A
O1225      C1511   1.276       .  A
O1226      C1231   1.266       .  A
O1227     Fe1493   2.066   1_554  S
O1227      C1230   1.273       .  A
O1228      C1240   1.281       .  A
O1229      C1242   1.257       .  A
C1230      O1235   1.269       .  A
C1230      C1277   1.469       .  S
O1233      C1236   1.286       .  A
O1234      C1236   1.273       .  A
O1235     Fe1495   2.082   1_554  S
C1236      C1274   1.475       .  S
O1237      C1242   1.259       .  A
O1238      C1240   1.266       .  A
C1239      O1497   1.277   1_554  A
C1239      O1241   1.274       .  A
C1239      C1341   1.473       .  S
C1240      C1265   1.493       .  S
O1241     Fe1495   2.067   1_554  S
C1242      C1281   1.474       .  S
Fe1243     O1259   2.015       .  S
Fe1243     O1249   2.083       .  S
Fe1243     O1256   2.091       .  S
Fe1243     O1248   2.016       .  S
Fe1243     O1254   1.963       .  S
Fe1244     O1247   2.043       .  S
Fe1244     O1251   2.097       .  S
Fe1244     O1255   2.052       .  S
Fe1244     O1260   2.084       .  S
Fe1244     O1254   1.954       .  S
Fe1245     O1263   2.111       .  S
Fe1245     O1250   2.088       .  S
Fe1245     O1257   2.027       .  S
Fe1245     O1246   2.143       .  S
Fe1245     O1254   1.955       .  S
O1246      C1253   1.287       .  A
O1247      C1261   1.268       .  A
O1248      C1253   1.260       .  A
O1249      C1252   1.271       .  A
O1250      C1262   1.274       .  A
O1251      C1264   1.270       .  A
C1252      O1257   1.262       .  A
C1252      C1357   1.462       .  S
C1253      C1298   1.494       .  S
O1255      C1258   1.273       .  A
O1256      C1258   1.275       .  A
C1258      C1354   1.472       .  S
O1259      C1264   1.257       .  A
O1260      C1262   1.271       .  A
C1261      O1263   1.282       .  A
C1261      C1270   1.478       .  S
C1262      C1266   1.489       .  S
C1264      C1334   1.476       .  S
C1265      C1266   1.349       .  D
C1265      H1267   1.086       .  S
C1266      H1268   1.087       .  S
C1269      C1270   1.340       .  D
C1269      H1271   1.087       .  S
C1270      H1272   1.088       .  S
C1273      C1274   1.348       .  D
C1273      H1275   1.087       .  S
C1274      H1276   1.086       .  S
C1277      C1278   1.341       .  D
C1277      H1279   1.086       .  S
C1278      H1280   1.088       .  S
C1281      C1554   1.342       .  D
C1281      H1283   1.087       .  S
C1282      C1553   1.338       .  D
C1282      H1284   1.087       .  S
C1285      C1286   1.347       .  D
C1285      H1287   1.086       .  S
C1286      H1288   1.086       .  S
C1289      C1290   1.369       .  D
C1289      H1291   1.086       .  S
C1290      H1292   1.086       .  S
C1293      C1294   1.341       .  D
C1293      H1295   1.087       .  S
C1294      H1296   1.086       .  S
C1297      C1842   1.362   1_545  D
C1297      H1299   1.087   1_545  S
C1298      C1841   1.369       .  D
C1298      H1300   1.086       .  S
C1301      C1302   1.343       .  D
C1301      H1303   1.087       .  S
C1302      H1304   1.087       .  S
C1305      C1306   1.344       .  D
C1305      H1307   1.086       .  S
C1306      H1308   1.086       .  S
C1309      C1310   1.345       .  D
C1309      H1311   1.086       .  S
C1310      H1312   1.087       .  S
C1313      C1314   1.342       .  D
C1313      H1315   1.087       .  S
C1314      H1316   1.086       .  S
C1317      C1318   1.362   1_655  D
C1317      H1319   1.087   1_655  S
C1321      C1322   1.337       .  D
C1321      H1323   1.087       .  S
C1322      H1324   1.087       .  S
C1325      C1326   1.345       .  D
C1325      H1327   1.086       .  S
C1326      H1328   1.088       .  S
C1329      C1330   1.347       .  D
C1329      H1331   1.086       .  S
C1330      H1332   1.088       .  S
C1333      C1334   1.347       .  D
C1333      H1335   1.087       .  S
C1334      H1336   1.087       .  S
C1337      C1882   1.362       .  D
C1337      H1339   1.087       .  S
C1338      C1881   1.360   1_545  D
C1338      H1884   1.087   1_545  S
H1340      C1882   1.087       .  S
C1341      C1342   1.346       .  D
C1341      H1615   1.086       .  S
C1342      H1344   1.087       .  S
H1343      C1613   1.087       .  S
C1345      C1618   1.349       .  D
C1345      H1347   1.086       .  S
C1346      C1617   1.347       .  D
C1346      H1348   1.086       .  S
C1349      C1350   1.357       .  D
C1349      H1351   1.086       .  S
C1350      H1352   1.088       .  S
C1353      C1354   1.344       .  D
C1353      H1355   1.088       .  S
C1354      H1356   1.086       .  S
C1357      C1358   1.345       .  D
C1357      H1359   1.087       .  S
C1358      H1360   1.087       .  S
Fe1361     O1377   2.062       .  S
Fe1361     O1367   2.024       .  S
Fe1361     O1374   2.020       .  S
Fe1361     O1372   1.973       .  S
Fe1362     O1365   2.062       .  S
Fe1362     O1369   2.065       .  S
Fe1362     O1373   2.066       .  S
Fe1362     O1378   2.041       .  S
Fe1362     O1372   1.969       .  S
Fe1363     O1381   2.107       .  S
Fe1363     O1368   2.090       .  S
Fe1363     O1375   2.111       .  S
Fe1363     O1372   1.971       .  S
O1364      C1371   1.284   1_554  A
O1365      C1379   1.266       .  A
O1366      C1371   1.274   1_554  A
O1367      C1370   1.256       .  A
O1368      C1380   1.274       .  A
O1369      C1382   1.276       .  A
C1370      O1375   1.276       .  A
C1370      C1609   1.487       .  S
C1371      C1625   1.458       .  S
O1373      C1376   1.259       .  A
O1374      C1376   1.255       .  A
C1376      C1614   1.472       .  S
O1377      C1382   1.273       .  A
O1378      C1380   1.266       .  A
C1379      O1381   1.277       .  A
C1379      C1622   1.488       .  S
C1380      C1618   1.472       .  S
C1382      C1630   1.465       .  S
Fe1383     O1399   2.069       .  S
Fe1383     O1389   2.061       .  S
Fe1383     O1396   2.062       .  S
Fe1383     O1388   2.065       .  S
Fe1383     O1394   1.959       .  S
Fe1384     O1387   2.048       .  S
Fe1384     O1391   2.102       .  S
Fe1384     O1395   2.045       .  S
Fe1384     O1400   2.052       .  S
Fe1384     O1394   1.948       .  S
Fe1385     O1403   2.126       .  S
Fe1385     O1390   2.073       .  S
Fe1385     O1397   2.106       .  S
Fe1385     O1386   2.106       .  S
Fe1385     O1394   1.946       .  S
O1386      C1393   1.286       .  A
O1387      C1401   1.268       .  A
O1388      C1393   1.280       .  A
O1389      C1392   1.259       .  A
O1390      C1402   1.268       .  A
O1391      C1404   1.283       .  A
C1392      O1397   1.274       .  A
C1392      C1589   1.497       .  S
C1393      C1597   1.483       .  S
O1395      C1398   1.252       .  A
O1396      C1398   1.259       .  A
C1398      C1593   1.471       .  S
O1399      C1404   1.281       .  A
O1400      C1402   1.265       .  A
C1401      O1403   1.284       .  A
C1401      C1621   1.486       .  S
C1402      C1605   1.472       .  S
C1404      C1601   1.483       .  S
Fe1405     O1421   2.068       .  S
Fe1405     O1411   2.042       .  S
Fe1405     O1418   2.046       .  S
Fe1405     O1410   2.071       .  S
Fe1405     O1416   1.969       .  S
Fe1406     O1409   2.082       .  S
Fe1406     O1413   2.069       .  S
Fe1406     O1417   2.110       .  S
Fe1406     O1422   2.065       .  S
Fe1406     O1416   1.940       .  S
Fe1407     O1425   2.043       .  S
Fe1407     O1412   2.121       .  S
Fe1407     O1419   2.097       .  S
Fe1407     O1408   2.096       .  S
Fe1407     O1416   1.952       .  S
O1408      C1415   1.277       .  A
O1409      C1423   1.275       .  A
O1410      C1415   1.266       .  A
O1411      C1414   1.268       .  A
O1412      C1424   1.281       .  A
O1413      C1426   1.260       .  A
C1414      O1419   1.280       .  A
C1414      C1582   1.475       .  S
C1415      C1569   1.491   1_545  S
O1417      C1420   1.285       .  A
O1418      C1420   1.272       .  A
C1420      C1585   1.475       .  S
O1421      C1426   1.262       .  A
O1422      C1424   1.269       .  A
C1423      O1425   1.264       .  A
C1423      C1594   1.467       .  S
C1424      C1577   1.497       .  S
C1426      C1573   1.486       .  S
Fe1427     O1443   2.042       .  S
Fe1427     O1440   2.075       .  S
Fe1427     O1432   2.044       .  S
Fe1427     O1438   1.977       .  S
Fe1428     O1431   2.078       .  S
Fe1428     O1435   2.067       .  S
Fe1428     O1439   2.093       .  S
Fe1428     O1444   2.059       .  S
Fe1428     O1438   1.966       .  S
Fe1429     O1434   2.112       .  S
Fe1429     O1430   2.109       .  S
Fe1429     O1438   1.978       .  S
O1430      C1437   1.276       .  A
O1432      C1437   1.261       .  A
O1433      C1436   1.278       .  A
O1434      C1446   1.279       .  A
O1435      C1448   1.260       .  A
C1436      O1441   1.272       .  A
C1436      C1602   1.477       .  S
C1437      C1561   1.496       .  S
O1439      C1442   1.282       .  A
O1440      C1442   1.277       .  A
C1442      C1598   1.481       .  S
O1443      C1448   1.256       .  A
O1444      C1446   1.265       .  A
C1445      O1447   1.274       .  A
C1445      C1565   1.475       .  S
C1446      C1578   1.494       .  S
C1448      C1617   1.479       .  S
Fe1449     O1465   2.047       .  S
Fe1449     O1455   2.042       .  S
Fe1449     O1462   2.044       .  S
Fe1449     O1460   1.954       .  S
Fe1450     O1453   2.068       .  S
Fe1450     O1457   2.106       .  S
Fe1450     O1461   2.077       .  S
Fe1450     O1466   2.087       .  S
Fe1450     O1460   1.935       .  S
Fe1451     O1469   2.104       .  S
Fe1451     O1456   2.056       .  S
Fe1451     O1463   2.096       .  S
Fe1451     O1460   1.957       .  S
O1452      C1459   1.280   1_554  A
O1453      C1467   1.267       .  A
O1454      C1459   1.270   1_554  A
O1455      C1458   1.264       .  A
O1456      C1468   1.272       .  A
O1457      C1470   1.286       .  A
C1458      O1463   1.278       .  A
C1458      C1610   1.482   1_545  S
C1459      C1586   1.477       .  S
O1461      C1464   1.262       .  A
O1462      C1464   1.256       .  A
C1464      C1566   1.478       .  S
O1465      C1470   1.273       .  A
O1466      C1468   1.279       .  A
C1467      O1469   1.274       .  A
C1467      C1558   1.491       .  S
C1468      C1554   1.470       .  S
C1470      C1581   1.472       .  S
Fe1471     O1487   2.039       .  S
Fe1471     O1477   2.056       .  S
Fe1471     O1484   2.053       .  S
Fe1471     O1476   2.060       .  S
Fe1471     O1482   1.957       .  S
Fe1472     O1475   2.056       .  S
Fe1472     O1479   2.122       .  S
Fe1472     O1483   2.070       .  S
Fe1472     O1488   2.098       .  S
Fe1472     O1482   1.926       .  S
Fe1473     O1491   2.114       .  S
Fe1473     O1478   2.062       .  S
Fe1473     O1485   2.111       .  S
Fe1473     O1474   2.089       .  S
Fe1473     O1482   1.937       .  S
O1474      C1481   1.279       .  A
O1475      C1489   1.268       .  A
O1476      C1481   1.276       .  A
O1477      C1480   1.262       .  A
O1478      C1490   1.270       .  A
O1479      C1492   1.291       .  A
C1480      O1485   1.279       .  A
C1481      C1545   1.475       .  S
O1483      C1486   1.259       .  A
O1484      C1486   1.251       .  A
C1486      C1541   1.464       .  S
O1487      C1492   1.275       .  A
O1488      C1490   1.278       .  A
C1489      O1491   1.281       .  A
C1489      C1557   1.490       .  S
C1490      C1574   1.481       .  S
C1492      C1550   1.472       .  S
Fe1493     O1509   2.052       .  S
Fe1493     O1506   2.051       .  S
Fe1493     O1498   2.049       .  S
Fe1493     O1504   1.941       .  S
Fe1494     O1497   2.080       .  S
Fe1494     O1501   2.055       .  S
Fe1494     O1505   2.087       .  S
Fe1494     O1510   2.046       .  S
Fe1494     O1504   1.928       .  S
Fe1495     O1500   2.118       .  S
Fe1495     O1496   2.104       .  S
Fe1495     O1504   1.947       .  S
O1496      C1503   1.285       .  A
O1498      C1503   1.266       .  A
O1499      C1502   1.271       .  A
O1500      C1512   1.275       .  A
O1501      C1514   1.259       .  A
C1502      O1507   1.279       .  A
C1502      C1549   1.477       .  S
O1505      C1508   1.279       .  A
O1506      C1508   1.272       .  A
C1508      C1546   1.470       .  S
O1509      C1514   1.262       .  A
O1510      C1512   1.261       .  A
C1511      O1513   1.264       .  A
C1511      C1613   1.461       .  S
C1512      C1537   1.487       .  S
C1514      C1553   1.469       .  S
Fe1515     O1531   2.047       .  S
Fe1515     O1521   2.051       .  S
Fe1515     O1528   2.031       .  S
Fe1515     O1520   2.054       .  S
Fe1515     O1526   1.958       .  S
Fe1516     O1519   2.064       .  S
Fe1516     O1523   2.075       .  S
Fe1516     O1527   2.086       .  S
Fe1516     O1532   2.081       .  S
Fe1516     O1526   1.934       .  S
Fe1517     O1535   2.070       .  S
Fe1517     O1522   2.096       .  S
Fe1517     O1529   2.075       .  S
Fe1517     O1518   2.100       .  S
Fe1517     O1526   1.935       .  S
O1518      C1525   1.280       .  A
O1519      C1533   1.271       .  A
O1520      C1525   1.266       .  A
O1521      C1524   1.268       .  A
O1522      C1534   1.274       .  A
O1523      C1536   1.263       .  A
C1524      O1529   1.273       .  A
C1524      C1629   1.467       .  S
C1525      C1570   1.484       .  S
O1527      C1530   1.282       .  A
O1528      C1530   1.269       .  A
C1530      C1626   1.454       .  S
O1531      C1536   1.257       .  A
O1532      C1534   1.273       .  A
C1533      O1535   1.275       .  A
C1533      C1542   1.471       .  S
C1534      C1538   1.489       .  S
C1536      C1606   1.475       .  S
C1537      C1538   1.345       .  D
C1537      H1539   1.086       .  S
C1538      H1540   1.087       .  S
C1541      C1542   1.338       .  D
C1541      H1543   1.087       .  S
C1542      H1544   1.089       .  S
C1545      C1546   1.347       .  D
C1545      H1547   1.087       .  S
C1546      H1548   1.086       .  S
C1549      C1550   1.343       .  D
C1549      H1551   1.087       .  S
C1550      H1552   1.086       .  S
C1553      H1555   1.087   1_556  S
C1554      H1556   1.087       .  S
C1557      C1558   1.347       .  D
C1557      H1559   1.086       .  S
C1558      H1560   1.086       .  S
C1561      C1562   1.362   1_655  D
C1561      H1563   1.087       .  S
C1562      H1564   1.087   1_455  S
C1565      C1566   1.349       .  D
C1565      H1567   1.086       .  S
C1566      H1568   1.087       .  S
C1569      C2114   1.364       .  D
C1569      H1571   1.087       .  S
C1570      C2113   1.362       .  D
C1570      H1572   1.086       .  S
C1573      C1574   1.345       .  D
C1573      H1575   1.086       .  S
C1574      H1576   1.086       .  S
C1577      C1578   1.350       .  D
C1577      H1579   1.086       .  S
C1578      H1580   1.086       .  S
C1581      C1582   1.342       .  D
C1581      H1583   1.086       .  S
C1582      H1584   1.088       .  S
C1585      C1586   1.344       .  D
C1585      H1587   1.086       .  S
C1586      H1588   1.087       .  S
C1589      C1590   1.368       .  D
C1589      H1591   1.087       .  S
C1593      C1594   1.338       .  D
C1593      H1595   1.088       .  S
C1594      H1596   1.087       .  S
C1597      C1598   1.347       .  D
C1597      H1599   1.087       .  S
C1598      H1600   1.086       .  S
C1601      C1602   1.345       .  D
C1601      H1603   1.087       .  S
C1602      H1604   1.086       .  S
C1605      C1606   1.348       .  D
C1605      H1607   1.086       .  S
C1606      H1608   1.087       .  S
C1609      C2154   1.366       .  D
C1609      H1611   1.087       .  S
C1610      C2153   1.362       .  D
C1610      H2156   1.086       .  S
H1612      C2154   1.087       .  S
C1613      C1614   1.341       .  D
C1614      H1616   1.086       .  S
C1617      H1619   1.087       .  S
C1618      H1620   1.086       .  S
C1621      C1622   1.355       .  D
C1621      H1623   1.087       .  S
C1622      H1624   1.087       .  S
C1625      C1626   1.337       .  D
C1625      H1627   1.089       .  S
C1626      H1628   1.087       .  S
C1629      C1630   1.344       .  D
C1629      H1631   1.087       .  S
C1630      H1632   1.087       .  S
Fe1633     O1649   2.094       .  S
Fe1633     O1639   2.026       .  S
Fe1633     O1646   2.031       .  S
Fe1633     O1910   2.082       .  S
Fe1633     O1644   1.947       .  S
Fe1634     O1637   2.082       .  S
Fe1634     O1641   2.042       .  S
Fe1634     O1645   2.093       .  S
Fe1634     O1650   2.047       .  S
Fe1634     O1644   1.948       .  S
Fe1635     O1653   2.090       .  S
Fe1635     O1640   2.090       .  S
Fe1635     O1647   2.104       .  S
Fe1635     O1908   2.050   1_554  S
Fe1635     O1644   1.947       .  S
O1636     Fe1907   2.098       .  S
O1636      C1643   1.283       .  A
O1637      C1651   1.269       .  A
O1638     Fe1905   2.045       .  S
O1638      C1643   1.275       .  A
O1639      C1642   1.259       .  A
O1640      C1652   1.276       .  A
O1641      C1654   1.274       .  A
C1642      O1647   1.276       .  A
C1642      C1881   1.481       .  S
C1643      C1897   1.470       .  S
O1645      C1648   1.265       .  A
O1646      C1648   1.257       .  A
C1648      C1886   1.479       .  S
O1649      C1654   1.280       .  A
O1650      C1652   1.272       .  A
C1651      O1653   1.274       .  A
C1651      C1894   1.483       .  S
C1652      C1890   1.469   1_554  S
C1654      C1902   1.469       .  S
Fe1655     O1671   2.099       .  S
Fe1655     O1661   2.036       .  S
Fe1655     O1668   2.029       .  S
Fe1655     O1660   2.086       .  S
Fe1655     O1666   1.954       .  S
Fe1656     O1659   2.071       .  S
Fe1656     O1663   2.065       .  S
Fe1656     O1667   2.083       .  S
Fe1656     O1672   2.074       .  S
Fe1656     O1666   1.956       .  S
Fe1657     O1675   2.098       .  S
Fe1657     O1662   2.098       .  S
Fe1657     O1669   2.120       .  S
Fe1657     O1658   2.060       .  S
Fe1657     O1666   1.945       .  S
O1658      C1665   1.272       .  A
O1659      C1673   1.267       .  A
O1660      C1665   1.276       .  A
O1661      C1664   1.259       .  A
O1662      C1674   1.278       .  A
O1663      C1676   1.278       .  A
C1664      O1669   1.279       .  A
C1664      C1861   1.492       .  S
C1665      C1869   1.475       .  S
O1667      C1670   1.263       .  A
O1668      C1670   1.256       .  A
C1670      C1865   1.473       .  S
O1671      C1676   1.282       .  A
O1672      C1674   1.275       .  A
C1673      O1675   1.275       .  A
C1673      C1893   1.484       .  S
C1674      C1877   1.481       .  S
C1676      C1873   1.480       .  S
Fe1677     O1693   2.053       .  S
Fe1677     O1683   2.062       .  S
Fe1677     O1690   2.045       .  S
Fe1677     O1682   2.069       .  S
Fe1677     O1688   1.951       .  S
Fe1678     O1681   2.070       .  S
Fe1678     O1685   2.080       .  S
Fe1678     O1689   2.092       .  S
Fe1678     O1694   2.069       .  S
Fe1678     O1688   1.933       .  S
Fe1679     O1697   2.075       .  S
Fe1679     O1684   2.121       .  S
Fe1679     O1691   2.086       .  S
Fe1679     O1680   2.104       .  S
Fe1679     O1688   1.924       .  S
O1680      C1687   1.283       .  A
O1681      C1695   1.271       .  A
O1682      C1687   1.268       .  A
O1683      C1686   1.271       .  A
O1684      C1696   1.280       .  A
O1685      C1698   1.264       .  A
C1686      O1691   1.276       .  A
C1686      C1854   1.478       .  S
C1687      C1841   1.489       .  S
O1689      C1692   1.282       .  A
O1690      C1692   1.271       .  A
C1692      C1857   1.467       .  S
O1693      C1698   1.260       .  A
O1694      C1696   1.271       .  A
C1695      O1697   1.273       .  A
C1695      C1866   1.464       .  S
C1696      C1849   1.496       .  S
C1698      C1845   1.480       .  S
Fe1699     O1715   2.062       .  S
Fe1699     O1977   2.060       .  S
Fe1699     O1712   2.058       .  S
Fe1699     O1704   2.059       .  S
Fe1699     O1710   1.951       .  S
Fe1700     O1703   2.089       .  S
Fe1700     O1707   2.050       .  S
Fe1700     O1711   2.106       .  S
Fe1700     O1716   2.058       .  S
Fe1700     O1710   1.938       .  S
Fe1701     O1991   2.049       .  S
Fe1701     O1706   2.126       .  S
Fe1701     O1985   2.098       .  S
Fe1701     O1702   2.113       .  S
Fe1701     O1710   1.945       .  S
O1702      C1709   1.282       .  A
O1703      C1989   1.276       .  A
O1704      C1709   1.264       .  A
O1705     Fe1971   2.063   1_554  S
O1705      C1708   1.275       .  A
O1706      C1718   1.282       .  A
O1707      C1720   1.258       .  A
C1708      O1713   1.279       .  A
C1708      C1874   1.479       .  S
C1709      C1833   1.496       .  S
O1711      C1714   1.282       .  A
O1712      C1714   1.274       .  A
O1713     Fe1973   2.091   1_554  S
C1714      C1870   1.469       .  S
O1715      C1720   1.261       .  A
O1716      C1718   1.268       .  A
C1717      O1975   1.271   1_554  A
C1717      O1719   1.266       .  A
C1717      C1837   1.467       .  S
C1718      C1850   1.495       .  S
O1719     Fe1973   2.056   1_554  S
C1720      C1889   1.468       .  S
Fe1721     O1737   2.045       .  S
Fe1721     O1727   2.046       .  S
Fe1721     O1734   2.046       .  S
Fe1721     O1998   2.055       .  S
Fe1721     O1732   1.961       .  S
Fe1722     O1725   2.051       .  S
Fe1722     O1729   2.109       .  S
Fe1722     O1733   2.059       .  S
Fe1722     O1738   2.074       .  S
Fe1722     O1732   1.940       .  S
Fe1723     O1741   2.107       .  S
Fe1723     O1728   2.049       .  S
Fe1723     O1735   2.095       .  S
Fe1723     O1996   2.096   1_554  S
Fe1723     O1732   1.954       .  S
O1724     Fe1995   2.091       .  S
O1724      C1731   1.280       .  A
O1725      C1739   1.268       .  A
O1726     Fe1993   2.045       .  S
O1726      C1731   1.272       .  A
O1727      C1730   1.260       .  A
O1728      C1740   1.266       .  A
O1729      C1742   1.286       .  A
C1730      O1735   1.273       .  A
C1730      C1882   1.484       .  S
C1731      C1858   1.468       .  S
O1733      C1736   1.256       .  A
O1734      C1736   1.255       .  A
C1736      C1838   1.471       .  S
O1737      C1742   1.275       .  A
O1738      C1740   1.273       .  A
C1739      O1741   1.278       .  A
C1739      C1830   1.487       .  S
C1740      C1826   1.464   1_554  S
C1742      C1853   1.472       .  S
Fe1743     O1759   2.082       .  S
Fe1743     O1749   2.029       .  S
Fe1743     O1756   2.020       .  S
Fe1743     O1748   2.075       .  S
Fe1743     O1754   1.957       .  S
Fe1744     O1747   2.068       .  S
Fe1744     O1751   2.059       .  S
Fe1744     O1755   2.081       .  S
Fe1744     O1760   2.068       .  S
Fe1744     O1754   1.957       .  S
Fe1745     O1763   2.094       .  S
Fe1745     O1750   2.090       .  S
Fe1745     O1757   2.113       .  S
Fe1745     O1746   2.044       .  S
Fe1745     O1754   1.956       .  S
O1746      C1753   1.268       .  A
O1747      C1761   1.266       .  A
O1748      C1753   1.272       .  A
O1749      C1752   1.259       .  A
O1750      C1762   1.277       .  A
O1751      C1764   1.278       .  A
C1752      O1757   1.279       .  A
C1753      C1817   1.465       .  S
O1755      C1758   1.261       .  A
O1756      C1758   1.255       .  A
C1758      C1813   1.474       .  S
O1759      C1764   1.279       .  A
O1760      C1762   1.274       .  A
C1761      O1763   1.273       .  A
C1761      C1829   1.484       .  S
C1762      C1846   1.475       .  S
C1764      C1822   1.468       .  S
Fe1765     O1781   2.071       .  S
Fe1765     O2043   2.043       .  S
Fe1765     O1778   2.043       .  S
Fe1765     O1770   2.064       .  S
Fe1765     O1776   1.951       .  S
Fe1766     O1769   2.078       .  S
Fe1766     O1773   2.043       .  S
Fe1766     O1777   2.098       .  S
Fe1766     O1782   2.052       .  S
Fe1766     O1776   1.936       .  S
Fe1767     O2057   2.053       .  S
Fe1767     O1772   2.131       .  S
Fe1767     O2051   2.092       .  S
Fe1767     O1768   2.115       .  S
Fe1767     O1776   1.939       .  S
O1768      C1775   1.282       .  A
O1769      C2055   1.272       .  A
O1770      C1775   1.265       .  A
O1771     Fe2037   2.051   1_554  S
O1771      C1774   1.269       .  A
O1772      C1784   1.285       .  A
O1773      C1786   1.256       .  A
C1774      O1779   1.276       .  A
C1774      C1821   1.470       .  S
O1777      C1780   1.280       .  A
O1778      C1780   1.272       .  A
O1779     Fe2039   2.081   1_554  S
C1780      C1818   1.458       .  S
O1781      C1786   1.263       .  A
O1782      C1784   1.268       .  A
C1783      O2041   1.271       .  A
C1783      O1785   1.274   1_556  A
C1783      C1885   1.468   1_556  S
C1784      C1809   1.494       .  S
O1785     Fe2039   2.083   1_554  S
C1786      C1825   1.466       .  S
Fe1787     O1803   2.062       .  S
Fe1787     O1793   2.049       .  S
Fe1787     O1800   2.048       .  S
Fe1787     O1792   2.065       .  S
Fe1787     O1798   1.954       .  S
Fe1788     O1791   2.065       .  S
Fe1788     O1795   2.082       .  S
Fe1788     O1799   2.086       .  S
Fe1788     O1804   2.075       .  S
Fe1788     O1798   1.936       .  S
Fe1789     O1807   2.073       .  S
Fe1789     O1794   2.113       .  S
Fe1789     O1801   2.076       .  S
Fe1789     O1790   2.102       .  S
Fe1789     O1798   1.942       .  S
O1790      C1797   1.282       .  A
O1791      C1805   1.270       .  A
O1792      C1797   1.270       .  A
O1793      C1796   1.267       .  A
O1794      C1806   1.277       .  A
O1795      C1808   1.267       .  A
C1796      O1801   1.271       .  A
C1796      C1901   1.467       .  S
C1797      C1842   1.491       .  S
O1799      C1802   1.279       .  A
O1800      C1802   1.269       .  A
C1802      C1898   1.468       .  S
O1803      C1808   1.265       .  A
O1804      C1806   1.271       .  A
C1805      O1807   1.271       .  A
C1805      C1814   1.458       .  S
C1806      C1810   1.494       .  S
C1808      C1878   1.487       .  S
C1809      C1810   1.349       .  D
C1809      H1811   1.086       .  S
C1810      H1812   1.087       .  S
C1813      C1814   1.342       .  D
C1813      H1815   1.086       .  S
C1814      H1816   1.088       .  S
C1817      C1818   1.344       .  D
C1817      H1819   1.087       .  S
C1818      H1820   1.087       .  S
C1821      C1822   1.343       .  D
C1821      H1823   1.087       .  S
C1822      H1824   1.087       .  S
C1825      C2098   1.339       .  D
C1825      H1827   1.088       .  S
C1826      C2097   1.342       .  D
C1826      H1828   1.087       .  S
C1829      C1830   1.344       .  D
C1829      H1831   1.088       .  S
C1830      H1832   1.086       .  S
C1833      C1834   1.369       .  D
C1833      H1835   1.086       .  S
C1834      H1836   1.086       .  S
C1837      C1838   1.343       .  D
C1837      H1839   1.087       .  S
C1838      H1840   1.087       .  S
C1841      H1843   1.086       .  S
C1842      H1844   1.086       .  S
C1845      C1846   1.347       .  D
C1845      H1847   1.086       .  S
C1846      H1848   1.087       .  S
C1849      C1850   1.350       .  D
C1849      H1851   1.087       .  S
C1850      H1852   1.086       .  S
C1853      C1854   1.344       .  D
C1853      H1855   1.087       .  S
C1854      H1856   1.087       .  S
C1857      C1858   1.342       .  D
C1857      H1859   1.086       .  S
C1858      H1860   1.088       .  S
C1861      C1862   1.367       .  D
C1861      H1863   1.087       .  S
C1865      C1866   1.342       .  D
C1865      H1867   1.086       .  S
C1866      H1868   1.088       .  S
C1869      C1870   1.346       .  D
C1869      H1871   1.087       .  S
C1870      H1872   1.087       .  S
C1873      C1874   1.350       .  D
C1873      H1875   1.086       .  S
C1874      H1876   1.087       .  S
C1877      C1878   1.349       .  D
C1877      H1879   1.087       .  S
C1878      H1880   1.086       .  S
C1881      H1883   1.087   1_565  S
C1885      C1886   1.345       .  D
C1885      H2159   1.088   1_554  S
C1886      H1888   1.086       .  S
H1887      C2157   1.087       .  S
C1889      C2162   1.343       .  D
C1889      H1891   1.087       .  S
C1890      C2161   1.342       .  D
C1890      H1892   1.087       .  S
C1893      C1894   1.354       .  D
C1893      H1895   1.086       .  S
C1894      H1896   1.087       .  S
C1897      C1898   1.342       .  D
C1897      H1899   1.088       .  S
C1898      H1900   1.086       .  S
C1901      C1902   1.346       .  D
C1901      H1903   1.087       .  S
C1902      H1904   1.086       .  S
Fe1905     O1921   2.032       .  S
Fe1905     O1911   2.038       .  S
Fe1905     O1918   2.045       .  S
Fe1905     O1916   1.964       .  S
Fe1906     O1909   2.056       .  S
Fe1906     O1913   2.102       .  S
Fe1906     O1917   2.071       .  S
Fe1906     O1922   2.052       .  S
Fe1906     O1916   1.939       .  S
Fe1907     O1925   2.109       .  S
Fe1907     O1912   2.067       .  S
Fe1907     O1919   2.091       .  S
Fe1907     O1916   1.950       .  S
O1908      C1915   1.271       .  A
O1909      C1923   1.268       .  A
O1910      C1915   1.274   1_554  A
O1911      C1914   1.257       .  A
O1912      C1924   1.268       .  A
O1913      C1926   1.285       .  A
C1914      O1919   1.271       .  A
C1914      C2153   1.478       .  S
C1915      C2169   1.469       .  S
O1917      C1920   1.257       .  A
O1918      C1920   1.254       .  A
C1920      C2158   1.476       .  S
O1921      C1926   1.273       .  A
O1922      C1924   1.269       .  A
C1923      O1925   1.278       .  A
C1923      C2166   1.483       .  S
C1924      C2162   1.468       .  S
C1926      C2174   1.461       .  S
Fe1927     O1943   2.067       .  S
Fe1927     O1933   2.033       .  S
Fe1927     O1940   2.035       .  S
Fe1927     O1932   2.067       .  S
Fe1927     O1938   1.955       .  S
Fe1928     O1931   2.041       .  S
Fe1928     O1935   2.105       .  S
Fe1928     O1939   2.057       .  S
Fe1928     O1944   2.063       .  S
Fe1928     O1938   1.942       .  S
Fe1929     O1947   2.108       .  S
Fe1929     O1934   2.076       .  S
Fe1929     O1941   2.098       .  S
Fe1929     O1930   2.090       .  S
Fe1929     O1938   1.960       .  S
O1930      C1937   1.275       .  A
O1931      C1945   1.261       .  A
O1932      C1937   1.277       .  A
O1933      C1936   1.257       .  A
O1934      C1946   1.274       .  A
O1935      C1948   1.288       .  A
C1936      O1941   1.275       .  A
C1936      C2133   1.480       .  S
C1937      C2141   1.472       .  S
O1939      C1942   1.255       .  A
O1940      C1942   1.253       .  A
C1942      C2137   1.470       .  S
O1943      C1948   1.279       .  A
O1944      C1946   1.274       .  A
C1945      O1947   1.275       .  A
C1945      C2165   1.483       .  S
C1946      C2149   1.471       .  S
C1948      C2145   1.480       .  S
Fe1949     O1965   2.059       .  S
Fe1949     O1955   2.062       .  S
Fe1949     O1962   2.055       .  S
Fe1949     O1954   2.067       .  S
Fe1949     O1960   1.952       .  S
Fe1950     O1953   2.081       .  S
Fe1950     O1957   2.077       .  S
Fe1950     O1961   2.098       .  S
Fe1950     O1966   2.067       .  S
Fe1950     O1960   1.934       .  S
Fe1951     O1969   2.052       .  S
Fe1951     O1956   2.103       .  S
Fe1951     O1963   2.078       .  S
Fe1951     O1952   2.087       .  S
Fe1951     O1960   1.954       .  S
O1952      C1959   1.279       .  A
O1953      C1967   1.278       .  A
O1954      C1959   1.269       .  A
O1955      C1958   1.270       .  A
O1956      C1968   1.273       .  A
O1957      C1970   1.263       .  A
C1958      O1963   1.268       .  A
C1958      C2126   1.466       .  S
C1959      C2113   1.483       .  S
O1961      C1964   1.283       .  A
O1962      C1964   1.274       .  A
C1964      C2129   1.475       .  S
O1965      C1970   1.261       .  A
O1966      C1968   1.266       .  A
C1967      O1969   1.271       .  A
C1967      C2138   1.464       .  S
C1968      C2121   1.488       .  S
C1970      C2117   1.485       .  S
Fe1971     O1987   2.059       .  S
Fe1971     O1984   2.063       .  S
Fe1971     O1976   2.053       .  S
Fe1971     O1982   1.954       .  S
Fe1972     O1975   2.066       .  S
Fe1972     O1979   2.048       .  S
Fe1972     O1983   2.092       .  S
Fe1972     O1988   2.052       .  S
Fe1972     O1982   1.940       .  S
Fe1973     O1978   2.117       .  S
Fe1973     O1974   2.105       .  S
Fe1973     O1982   1.949       .  S
O1974      C1981   1.278       .  A
O1976      C1981   1.262       .  A
O1977      C1980   1.272       .  A
O1978      C1990   1.281       .  A
O1979      C1992   1.256       .  A
C1980      O1985   1.279       .  A
C1980      C2146   1.483       .  S
C1981      C2105   1.490       .  S
O1983      C1986   1.280       .  A
O1984      C1986   1.277       .  A
C1986      C2142   1.476       .  S
O1987      C1992   1.260       .  A
O1988      C1990   1.269       .  A
C1989      O1991   1.267       .  A
C1989      C2109   1.472       .  S
C1990      C2122   1.487       .  S
C1992      C2161   1.468       .  S
Fe1993     O2009   2.046       .  S
Fe1993     O1999   2.049       .  S
Fe1993     O2006   2.063       .  S
Fe1993     O2004   1.947       .  S
Fe1994     O1997   2.053       .  S
Fe1994     O2001   2.096       .  S
Fe1994     O2005   2.064       .  S
Fe1994     O2010   2.065       .  S
Fe1994     O2004   1.930       .  S
Fe1995     O2013   2.121       .  S
Fe1995     O2000   2.056       .  S
Fe1995     O2007   2.104       .  S
Fe1995     O2004   1.940       .  S
O1996      C2003   1.280       .  A
O1997      C2011   1.269       .  A
O1998      C2003   1.274   1_554  A
O1999      C2002   1.263       .  A
O2000      C2012   1.266       .  A
O2001      C2014   1.280       .  A
C2002      O2007   1.279       .  A
C2002      C2154   1.487       .  S
C2003      C2130   1.478       .  S
O2005      C2008   1.259       .  A
O2006      C2008   1.262       .  A
C2008      C2110   1.477       .  S
O2009      C2014   1.274       .  A
O2010      C2012   1.272       .  A
C2011      O2013   1.282       .  A
C2011      C2102   1.487       .  S
C2012      C2098   1.467       .  S
C2014      C2125   1.472       .  S
Fe2015     O2031   2.026       .  S
Fe2015     O2021   2.051       .  S
Fe2015     O2028   2.055       .  S
Fe2015     O2020   2.044       .  S
Fe2015     O2026   1.958       .  S
Fe2016     O2019   2.069       .  S
Fe2016     O2023   2.120       .  S
Fe2016     O2027   2.078       .  S
Fe2016     O2032   2.097       .  S
Fe2016     O2026   1.925       .  S
Fe2017     O2035   2.103       .  S
Fe2017     O2022   2.063       .  S
Fe2017     O2029   2.097       .  S
Fe2017     O2018   2.081       .  S
Fe2017     O2026   1.940       .  S
O2018      C2025   1.276       .  A
O2019      C2033   1.270       .  A
O2020      C2025   1.271       .  A
O2021      C2024   1.263       .  A
O2022      C2034   1.271       .  A
O2023      C2036   1.289       .  A
C2024      O2029   1.276       .  A
C2025      C2089   1.462       .  S
O2027      C2030   1.262       .  A
O2028      C2030   1.253       .  A
C2030      C2085   1.471       .  S
O2031      C2036   1.271       .  A
O2032      C2034   1.278       .  A
C2033      O2035   1.277       .  A
C2033      C2101   1.488       .  S
C2034      C2118   1.480       .  S
C2036      C2094   1.463       .  S
Fe2037     O2053   2.054       .  S
Fe2037     O2050   2.036       .  S
Fe2037     O2042   2.068       .  S
Fe2037     O2048   1.944       .  S
Fe2038     O2041   2.072       .  S
Fe2038     O2045   2.066       .  S
Fe2038     O2049   2.084       .  S
Fe2038     O2054   2.050       .  S
Fe2038     O2048   1.931       .  S
Fe2039     O2044   2.121       .  S
Fe2039     O2040   2.117       .  S
Fe2039     O2048   1.925       .  S
O2040      C2047   1.286       .  A
O2042      C2047   1.269       .  A
O2043      C2046   1.270       .  A
O2044      C2056   1.279       .  A
O2045      C2058   1.262       .  A
C2046      O2051   1.281       .  A
C2046      C2093   1.470       .  S
O2049      C2052   1.279       .  A
O2050      C2052   1.268       .  A
C2052      C2090   1.458       .  S
O2053      C2058   1.262       .  A
O2054      C2056   1.267       .  A
C2055      O2057   1.266       .  A
C2055      C2157   1.470       .  S
C2056      C2081   1.488       .  S
C2058      C2097   1.472       .  S
Fe2059     O2075   2.054       .  S
Fe2059     O2065   2.064       .  S
Fe2059     O2072   2.051       .  S
Fe2059     O2064   2.066       .  S
Fe2059     O2070   1.949       .  S
Fe2060     O2063   2.067       .  S
Fe2060     O2067   2.069       .  S
Fe2060     O2071   2.097       .  S
Fe2060     O2076   2.079       .  S
Fe2060     O2070   1.934       .  S
Fe2061     O2079   2.077       .  S
Fe2061     O2066   2.097       .  S
Fe2061     O2073   2.067       .  S
Fe2061     O2062   2.105       .  S
Fe2061     O2070   1.934       .  S
O2062      C2069   1.282       .  A
O2063      C2077   1.270       .  A
O2064      C2069   1.268       .  A
O2065      C2068   1.269       .  A
O2066      C2078   1.276       .  A
O2067      C2080   1.262       .  A
C2068      O2073   1.271       .  A
C2068      C2173   1.472       .  S
C2069      C2114   1.493       .  S
O2071      C2074   1.280       .  A
O2072      C2074   1.273       .  A
C2074      C2170   1.461       .  S
O2075      C2080   1.259       .  A
O2076      C2078   1.275       .  A
C2077      O2079   1.274       .  A
C2077      C2086   1.476       .  S
C2078      C2082   1.488       .  S
C2080      C2150   1.473       .  S
C2081      C2082   1.344       .  D
C2081      H2083   1.087       .  S
C2082      H2084   1.087       .  S
C2085      C2086   1.340       .  D
C2085      H2087   1.087       .  S
C2086      H2088   1.088       .  S
C2089      C2090   1.340       .  D
C2089      H2091   1.088       .  S
C2090      H2092   1.086       .  S
C2093      C2094   1.339       .  D
C2093      H2095   1.087       .  S
C2094      H2096   1.086       .  S
C2097      H2099   1.087       .  S
C2098      H2100   1.087       .  S
C2101      C2102   1.346       .  D
C2101      H2103   1.087       .  S
C2102      H2104   1.086       .  S
C2105      C2106   1.366       .  D
C2105      H2107   1.086       .  S
C2106      H2108   1.086       .  S
C2109      C2110   1.343       .  D
C2109      H2111   1.087       .  S
C2110      H2112   1.087       .  S
C2113      H2115   1.087       .  S
C2114      H2116   1.086       .  S
C2117      C2118   1.346       .  D
C2117      H2119   1.086       .  S
C2118      H2120   1.087       .  S
C2121      C2122   1.346       .  D
C2121      H2123   1.087       .  S
C2122      H2124   1.086       .  S
C2125      C2126   1.343       .  D
C2125      H2127   1.087       .  S
C2126      H2128   1.086       .  S
C2129      C2130   1.346       .  D
C2129      H2131   1.086       .  S
C2130      H2132   1.087       .  S
C2133      C2134   1.364       .  D
C2133      H2135   1.087       .  S
C2137      C2138   1.341       .  D
C2137      H2139   1.087       .  S
C2138      H2140   1.087       .  S
C2141      C2142   1.344       .  D
C2141      H2143   1.086       .  S
C2142      H2144   1.088       .  S
C2145      C2146   1.348       .  D
C2145      H2147   1.086       .  S
C2146      H2148   1.087       .  S
C2149      C2150   1.347       .  D
C2149      H2151   1.086       .  S
C2150      H2152   1.086       .  S
C2153      H2155   1.087       .  S
C2157      C2158   1.345       .  D
C2158      H2160   1.087       .  S
C2161      H2163   1.087       .  S
C2162      H2164   1.087       .  S
C2165      C2166   1.354       .  D
C2165      H2167   1.087       .  S
C2166      H2168   1.087       .  S
C2169      C2170   1.343       .  D
C2169      H2171   1.087       .  S
C2170      H2172   1.087       .  S
C2173      C2174   1.344       .  D
C2173      H2175   1.087       .  S
C2174      H2176   1.086       .  S
