geometry optimzed in LAMMPS
_audit_creation_date              2020-12-01 
_audit_creation_method            'lammps2cif' 
_symmetry_space_group_name_H-M    'P1' 
_symmetry_Int_Tables_number       1 
_symmetry_cell_setting            triclinic 
loop_ 
_symmetry_equiv_pos_as_xyz 
  x,y,z 
_cell_length_a                    79.40235595 
_cell_length_b                    79.34026296632554 
_cell_length_c                    49.14235068814797 
_cell_angle_alpha                 89.80795529404303 
_cell_angle_beta                  90.09220866202237 
_cell_angle_gamma                 119.97654769665876 
loop_ 
_atom_site_label 
_atom_site_type_symbol 
_atom_site_fract_x 
_atom_site_fract_y 
_atom_site_fract_z 
_atom_site_charge 
Zr1        Zr  0.84200367  0.24901279  0.28394196     2.17500
O2          O  0.84190161  0.21863892  0.29230874    -0.51400
O3          O  0.80808949  0.22925429  0.29907471    -0.74600
O4          O  0.85374430  0.24734648  0.32948692    -0.81400
O5          O  0.83909733  0.24055682  0.20671913    -0.83100
O6          O  0.86233442  0.27528693  0.35269660    -0.78700
O7          O  0.83921886  0.22676808  0.24724306    -0.90400
O8          O  0.79159034  0.24486493  0.28820307    -0.76300
O9          O  0.83288412  0.26979769  0.30657495    -0.85800
O10         O  0.82395443  0.25619770  0.25170271    -0.85500
O11         O  0.87239585  0.27733479  0.29660451    -0.72300
O12         O  0.86361833  0.26479917  0.24628466    -0.84400
Zr13       Zr  0.86739175  0.32218604  0.24924618     2.26400
Zr14       Zr  0.86288642  0.29830840  0.31883050     2.06300
Zr15       Zr  0.84567809  0.27296962  0.21501171     2.10000
Zr16       Zr  0.81553029  0.27750556  0.27383101     1.78800
O17         O  0.86037879  0.26882803  0.17395055    -0.93200
O18         O  0.80259887  0.28283936  0.31583285    -0.41000
O19         O  0.83687598  0.29436573  0.23635988    -0.77600
O20         O  0.84512799  0.30615583  0.28646608    -0.96300
O21         O  0.88474182  0.31432332  0.28167888    -0.89600
O22         O  0.87582865  0.30091428  0.22691122    -0.92500
C23         C  0.79240285  0.23021358  0.29768350     1.01300
C24         C  0.83808590  0.22663412  0.22107539     1.14200
C25         C  0.85983468  0.25800677  0.35093368     1.05000
O26         O  0.84309101  0.29886868  0.35627965    -0.94600
O27         O  0.87053118  0.33191487  0.32601050    -0.90400
O28         O  0.87582113  0.34654086  0.28444351    -0.83500
C29         C  0.87507941  0.34671364  0.31054483     1.11600
O30         O  0.90659645  0.27151352  0.26252574    -0.96600
Zr31       Zr  0.89330138  0.29327839  0.25889458     1.88900
O32         O  0.90214680  0.34436770  0.24137059    -0.73200
O33         O  0.89333926  0.31473852  0.34409356    -0.52500
O34         O  0.91817799  0.30413156  0.29415925    -0.97200
O35         O  0.90739020  0.28926831  0.21698910    -0.54400
O36         O  0.91677110  0.32609180  0.24547811    -0.73800
C37         C  0.91709879  0.34212172  0.24075859     0.98600
O38         O  0.85566944  0.34464618  0.23871820    -0.62600
O39         O  0.81420306  0.26036462  0.19277525    -0.57400
O40         O  0.86638499  0.32707611  0.19992618    -0.94100
O41         O  0.85226299  0.29707915  0.18065630    -0.92500
O42         O  0.79028755  0.26667608  0.23913429    -0.92800
O43         O  0.80109408  0.29798310  0.26675617    -0.91600
C44         C  0.86004633  0.31558481  0.17925955     1.17400
H45         H  0.81265473  0.24449318  0.24537871     0.33400
H46         H  0.84140605  0.31491431  0.29445717     0.44200
H47         H  0.88377089  0.30695738  0.21103356     0.37700
H48         H  0.88028414  0.27435449  0.30838978     0.34200
H49         H  0.78831704  0.27571085  0.31328702     0.26000
H50         H  0.89898590  0.30614015  0.34233961     0.32000
H51         H  0.92361057  0.31837620  0.29540449     0.37900
H52         H  0.78505556  0.25248639  0.23745777     0.32300
H53         H  0.81730368  0.26432384  0.17347432     0.31200
H54         H  0.84990295  0.26383737  0.16012401     0.32900
H55         H  0.91054069  0.30080828  0.20564500     0.31800
H56         H  0.81231327  0.31136895  0.26542908     0.35800
H57         H  0.84534630  0.33789783  0.22492348     0.28600
H58         H  0.83384449  0.21289822  0.30878684     0.32800
H59         H  0.92079339  0.27982920  0.25973040     0.35700
H60         H  0.80860123  0.24607108  0.19256469     0.28300
H61         H  0.84846583  0.34467212  0.25513207     0.41100
H62         H  0.83448813  0.28504644  0.36129530     0.31200
H63         H  0.80489083  0.27518855  0.32979860     0.38800
H64         H  0.89638894  0.27830137  0.20748037     0.30700
H65         H  0.90196405  0.32631756  0.33297302     0.30700
H66         H  0.85532291  0.22244255  0.29792198     0.31000
Zr67       Zr  0.90417539  0.18751470  0.55581800     2.17500
O68         O  0.87189541  0.18366396  0.55004460    -0.51400
O69         O  0.88621275  0.15387023  0.54010200    -0.74600
O70         O  0.90011817  0.19949772  0.51177529    -0.81400
O71         O  0.89637187  0.18106648  0.63316001    -0.83100
O72         O  0.92805385  0.21014790  0.48751286    -0.78700
O73         O  0.88222986  0.18287063  0.59389289    -0.90400
O74         O  0.90365193  0.13888115  0.54880974    -0.76300
O75         O  0.92616854  0.18115506  0.53074011    -0.85800
O76         O  0.91352499  0.16981204  0.58558768    -0.85500
O77         O  0.93083827  0.21916886  0.54343385    -0.72300
O78         O  0.91920579  0.20833004  0.59419714    -0.84400
Zr79       Zr  0.97821303  0.21653604  0.58714842     2.26400
Zr80       Zr  0.95311815  0.21246884  0.51900762     2.06300
Zr81       Zr  0.92946181  0.19086458  0.62303914     2.10000
Zr82       Zr  0.93599166  0.16415754  0.56108445     1.78800
O83         O  0.92672978  0.20699069  0.66346994    -0.93200
O84         O  0.93965601  0.15143070  0.51777813    -0.41000
O85         O  0.95197196  0.18480752  0.59923706    -0.77600
O86         O  0.96302714  0.19507270  0.54896256    -0.96300
O87         O  0.96830902  0.23349871  0.55697788    -0.89600
O88         O  0.95583265  0.22232051  0.61179232    -0.92500
C89         C  0.88827072  0.13882331  0.54085196     1.01300
C90         C  0.88217207  0.18018855  0.61976691     1.14200
C91         C  0.91037828  0.20642844  0.49009050     1.05000
O92         O  0.95461871  0.19595430  0.47825515    -0.94600
O93         O  0.98719896  0.22189924  0.51002412    -0.90400
O94         O  0.00229150  0.22661704  0.55110992    -0.83500
C95         C  0.00226752  0.22659232  0.52497140     1.11600
O96         O  0.92143351  0.24892548  0.57764335    -0.96600
Zr97       Zr  0.94611291  0.23933539  0.58184485     1.88900
O98         O  0.99889632  0.25160218  0.59407747    -0.73200
O99         O  0.96792126  0.24410043  0.49657527    -0.52500
O100        O  0.95605170  0.26524067  0.54822335    -0.97200
O101        O  0.94101202  0.25215928  0.62417883    -0.54400
O102        O  0.97861171  0.26409933  0.59446743    -0.73800
C103        C  0.99543405  0.26571372  0.59654248     0.98600
O104        O  0.00158816  0.20602314  0.59787375    -0.62600
O105        O  0.91775085  0.15971721  0.64621648    -0.57400
O106        O  0.98382910  0.21517943  0.63614331    -0.94100
O107        O  0.95416695  0.19529004  0.65498068    -0.92500
O108        O  0.92840926  0.13865388  0.59460629    -0.92800
O109        O  0.96011765  0.15380228  0.56358767    -0.91600
C110        C  0.97266650  0.20565870  0.65626642     1.17400
H111        H  0.90240095  0.15788149  0.59181956     0.33400
H112        H  0.97221933  0.19231762  0.54009248     0.44200
H113        H  0.96163722  0.22997463  0.62792749     0.37700
H114        H  0.92689537  0.22672682  0.53257851     0.34200
H115        H  0.93491033  0.13746728  0.52129666     0.26000
H116        H  0.96850505  0.24122513  0.47711937     0.32000
H117        H  0.96290466  0.27748871  0.55871615     0.37900
H118        H  0.91450468  0.13336107  0.59905496     0.32300
H119        H  0.91993056  0.16297791  0.66581236     0.31200
H120        H  0.92168351  0.19681582  0.67777657     0.32900
H121        H  0.95400487  0.25962602  0.63268058     0.31800
H122        H  0.97028677  0.16332412  0.57589708     0.35800
H123        H  0.99414188  0.19397030  0.60872962     0.28600
H124        H  0.86652118  0.17591521  0.53325977     0.32800
H125        H  0.92823251  0.26308187  0.58131219     0.35700
H126        H  0.90343726  0.15275212  0.64413307     0.28300
H127        H  0.00405533  0.20136557  0.58049051     0.41100
H128        H  0.95905249  0.18700361  0.48481783     0.31200
H129        H  0.92965975  0.15146522  0.50574101     0.38800
H130        H  0.93384830  0.24061515  0.63605269     0.30700
H131        H  0.95792544  0.24806306  0.49739282     0.30700
H132        H  0.87404849  0.19677121  0.54552897     0.31000
Zr133      Zr  0.93456892  0.42293931  0.88705110     2.17500
O134        O  0.96817051  0.44915134  0.88192838    -0.51400
O135        O  0.92229349  0.44405480  0.87085737    -0.74600
O136        O  0.94745951  0.42565909  0.84128995    -0.81400
O137        O  0.93689281  0.43144966  0.96353802    -0.83100
O138        O  0.92859974  0.39763915  0.81793912    -0.78700
O139        O  0.95116868  0.44653458  0.92378612    -0.90400
O140        O  0.88988159  0.42854909  0.87976660    -0.76300
O141        O  0.90532255  0.40255102  0.86252018    -0.85800
O142        O  0.90848874  0.41566223  0.91754762    -0.85500
O143        O  0.93619034  0.39436223  0.87445643    -0.72300
O144        O  0.93908322  0.40668076  0.92530194    -0.84400
Zr145      Zr  0.88515654  0.34963581  0.91930471     2.26400
Zr146      Zr  0.90630298  0.37366588  0.85080904     2.06300
Zr147      Zr  0.91227013  0.39849313  0.95477484     2.10000
Zr148      Zr  0.87951239  0.39519778  0.89338027     1.78800
O149        O  0.93257620  0.40074234  0.99333578    -0.93200
O150        O  0.86318342  0.39100428  0.84981995    -0.41000
O151        O  0.88275719  0.37779249  0.93129650    -0.77600
O152        O  0.87990635  0.36611258  0.88150769    -0.96300
O153        O  0.91123727  0.35751100  0.88848447    -0.89600
O154        O  0.91436226  0.37040432  0.94334540    -0.92500
C155        C  0.90575774  0.44334679  0.87154609     1.01300
C156        C  0.94937981  0.44614762  0.94988488     1.14200
C157        C  0.94295108  0.41513887  0.81977429     1.05000
O158        O  0.88974353  0.37260798  0.80856979    -0.94600
O159        O  0.87935672  0.34047636  0.84240448    -0.90400
O160        O  0.86889585  0.32545931  0.88349458    -0.83500
C161        C  0.86838983  0.32555632  0.85731680     1.11600
O162        O  0.97450336  0.40343225  0.91196887    -0.96600
Zr163      Zr  0.94030444  0.37823546  0.91276575     1.88900
O164        O  0.89721921  0.32685455  0.92527209    -0.73200
O165        O  0.92236821  0.35764194  0.82988548    -0.52500
O166        O  0.95917192  0.37117571  0.88050103    -0.97200
O167        O  0.95535806  0.37725240  0.95570274    -0.54400
O168        O  0.92992010  0.34414497  0.91825708    -0.73800
C169        C  0.91398395  0.32826700  0.92262394     0.98600
O170        O  0.85138452  0.32814341  0.93274247    -0.62600
O171        O  0.89527748  0.41228800  0.97918966    -0.57400
O172        O  0.87843844  0.34438829  0.96842528    -0.94100
O173        O  0.89225031  0.37436731  0.98777671    -0.92500
O174        O  0.86464188  0.40670329  0.92625908    -0.92800
O175        O  0.84437599  0.37502389  0.89782254    -0.91600
C176        C  0.88215480  0.35579371  0.98896873     1.17400
H177        H  0.90877445  0.42731865  0.92382207     0.33400
H178        H  0.86752894  0.35762736  0.87304515     0.44200
H179        H  0.91572353  0.36410925  0.95937628     0.37700
H180        H  0.94720619  0.39764662  0.86285670     0.34200
H181        H  0.85613083  0.39829301  0.85167306     0.26000
H182        H  0.91652117  0.35396152  0.81151820     0.32000
H183        H  0.94935526  0.36011294  0.86966696     0.37900
H184        H  0.86130022  0.39777561  0.94200711     0.32300
H185        H  0.88207457  0.40120407  0.98268012     0.31200
H186        H  0.92629363  0.40285987  0.00932042     0.32900
H187        H  0.94679388  0.36414775  0.96344167     0.31800
H188        H  0.84247459  0.36377500  0.90894606     0.35800
H189        H  0.84701319  0.33703410  0.93968806     0.28600
H190        H  0.96820045  0.45730075  0.86659868     0.32800
H191        H  0.98172364  0.39741856  0.91990655     0.35700
H192        H  0.90151852  0.41568269  0.99733947     0.28300
H193        H  0.84388894  0.32291490  0.91574056     0.41100
H194        H  0.87629390  0.36870156  0.81408885     0.31200
H195        H  0.87373590  0.39877398  0.83670595     0.38800
H196        H  0.95369348  0.38621740  0.96789875     0.30700
H197        H  0.93588334  0.36817722  0.82655652     0.30700
H198        H  0.97549576  0.44289832  0.87527558     0.31000
Zr199      Zr  0.05049565  0.48419583  0.60878337     2.17500
O200        O  0.02083674  0.48587065  0.61431189    -0.51400
O201        O  0.06628923  0.51878544  0.62066304    -0.74600
O202        O  0.03665553  0.47507802  0.65451048    -0.81400
O203        O  0.04623423  0.48563664  0.53066325    -0.83100
O204        O  0.05536074  0.46639621  0.67937022    -0.78700
O205        O  0.03246410  0.48744116  0.57025523    -0.90400
O206        O  0.09839996  0.53316148  0.61031110    -0.76300
O207        O  0.08005960  0.49260338  0.63227599    -0.85800
O208        O  0.07609065  0.49976438  0.57643231    -0.85500
O209        O  0.04665866  0.45364477  0.62500524    -0.72300
O210        O  0.04320511  0.46084828  0.57323462    -0.84400
Zr211      Zr  0.09460133  0.45332402  0.58000513     2.26400
Zr212      Zr  0.07681904  0.46241655  0.64771714     2.06300
Zr213      Zr  0.06962054  0.47625774  0.54198919     2.10000
Zr214      Zr  0.10535299  0.50748507  0.59934418     1.78800
O215        O  0.05037808  0.45649934  0.50376037    -0.93200
O216        O  0.12424155  0.52352852  0.63987874    -0.41000
O217        O  0.09926971  0.48415738  0.56424072    -0.77600
O218        O  0.10249311  0.47757661  0.61495745    -0.96300
O219        O  0.06922325  0.43883693  0.61285239    -0.89600
O220        O  0.06532034  0.44568001  0.55672650    -0.92500
C221        C  0.08340485  0.53376101  0.61855070     1.01300
C222        C  0.03394283  0.48816880  0.54409833     1.14200
C223        C  0.04103396  0.46953224  0.67671028     1.05000
O224        O  0.09752479  0.48206841  0.68494681    -0.94600
O225        O  0.10173798  0.45355260  0.65704917    -0.90400
O226        O  0.11073798  0.44620729  0.61677302    -0.83500
C227        C  0.11177301  0.44811617  0.64279828     1.11600
O228        O  0.00658337  0.42452705  0.58738988    -0.96600
Zr229      Zr  0.03999659  0.43092767  0.58931691     1.88900
O230        O  0.07978075  0.41775667  0.57882093    -0.73200
O231        O  0.06129819  0.43272449  0.67482784    -0.52500
O232        O  0.01864221  0.40737821  0.62309875    -0.97200
O233        O  0.02507343  0.41265408  0.54781556    -0.54400
O234        O  0.04834637  0.40561046  0.59195865    -0.73800
C235        C  0.06305153  0.40372144  0.58621051     0.98600
O236        O  0.12804545  0.46247799  0.56859144    -0.62600
O237        O  0.08547334  0.50589185  0.51478555    -0.57400
O238        O  0.09926075  0.45173914  0.53064113    -0.94100
O239        O  0.09145167  0.47314043  0.51182003    -0.92500
O240        O  0.12003707  0.53097986  0.56249221    -0.92800
O241        O  0.13962618  0.51757579  0.59417715    -0.91600
C242        C  0.09831407  0.46167202  0.51045824     1.17400
H243        H  0.07652429  0.51120692  0.56873486     0.33400
H244        H  0.11487898  0.48102261  0.62310209     0.44200
H245        H  0.06313238  0.43714411  0.54154347     0.37700
H246        H  0.03573461  0.44675090  0.63708166     0.34200
H247        H  0.13182341  0.53748195  0.63487479     0.26000
H248        H  0.06113166  0.43708585  0.69362856     0.32000
H249        H  0.01083228  0.39515863  0.61281455     0.37900
H250        H  0.12790540  0.54365672  0.57169210     0.32300
H251        H  0.09952708  0.51136510  0.51830174     0.31200
H252        H  0.05691567  0.46437860  0.48739603     0.32900
H253        H  0.03351782  0.40754104  0.54162670     0.31800
H254        H  0.13966054  0.50721877  0.58302658     0.35800
H255        H  0.13189748  0.47233433  0.55395483     0.28600
H256        H  0.02342094  0.49498736  0.62954236     0.32800
H257        H  0.99877094  0.41144273  0.57926994     0.35700
H258        H  0.08367757  0.50138169  0.49568555     0.28300
H259        H  0.13595987  0.47008143  0.58434104     0.41100
H260        H  0.11046649  0.49023092  0.67653833     0.31200
H261        H  0.11458525  0.52280940  0.65325103     0.38800
H262        H  0.02687140  0.42259788  0.53411991     0.30700
H263        H  0.04751824  0.42601764  0.66901336     0.30700
H264        H  0.01088362  0.47294759  0.62125425     0.31000
Zr265      Zr  0.07775600  0.27553503  0.95123361     2.17500
O266        O  0.10766102  0.30596574  0.96069969    -0.51400
O267        O  0.09611552  0.25940486  0.96324233    -0.74600
O268        O  0.08066191  0.28607616  0.99840475    -0.81400
O269        O  0.08816062  0.28443364  0.87537641    -0.83100
O270        O  0.05074792  0.27088655  0.01826263    -0.78700
O271        O  0.10192891  0.29531612  0.91680180    -0.90400
O272        O  0.07941547  0.22790516  0.94948954    -0.76300
O273        O  0.05527538  0.24538132  0.97235389    -0.85800
O274        O  0.06993934  0.25117781  0.91764302    -0.85500
O275        O  0.05047778  0.27921325  0.96431865    -0.72300
O276        O  0.06371079  0.28427173  0.91421016    -0.84400
Zr277      Zr  0.00530432  0.23279372  0.91373049     2.26400
Zr278      Zr  0.02770595  0.24850610  0.98471446     2.06300
Zr279      Zr  0.05508053  0.25904894  0.88150235     2.10000
Zr280      Zr  0.04690962  0.22120465  0.93813992     1.78800
O281        O  0.06454016  0.27674970  0.83849830    -0.93200
O282        O  0.04331715  0.20201330  0.97882269    -0.41000
O283        O  0.03206314  0.22846125  0.90056437    -0.77600
O284        O  0.01919377  0.22381090  0.95089062    -0.96300
O285        O  0.01365912  0.25693126  0.94787054    -0.89600
O286        O  0.02818660  0.26303714  0.89377330    -0.92500
C287        C  0.09448275  0.24263614  0.95943961     1.01300
C288        C  0.10238003  0.29576387  0.89064853     1.14200
C289        C  0.06908274  0.28326205  0.01828560     1.05000
O290        O  0.02641734  0.22730802  0.02159990    -0.94600
O291        O  0.99314700  0.22396698  0.98945521    -0.90400
O292        O  0.97957154  0.21719309  0.94711762    -0.83500
C293        C  0.97858468  0.21526268  0.97310779     1.11600
O294        O  0.06180310  0.32091071  0.93253531    -0.96600
Zr295      Zr  0.03612979  0.28706303  0.92743211     1.88900
O296        O  0.98445412  0.24705532  0.90815269    -0.73200
O297        O  0.01154477  0.26213155  0.01140999    -0.52500
O298        O  0.02834641  0.30268395  0.96407482    -0.97200
O299        O  0.03813893  0.30586221  0.88683118    -0.54400
O300        O  0.00273341  0.27907102  0.91942594    -0.73800
C301        C  0.98667428  0.26400798  0.91255478     0.98600
O302        O  0.98352392  0.19903590  0.90080333    -0.62600
O303        O  0.06449764  0.23673220  0.86223390    -0.57400
O304        O  0.00062946  0.22945644  0.86420359    -0.94100
O305        O  0.03094975  0.24728272  0.84618472    -0.92500
O306        O  0.05493177  0.20530488  0.90224213    -0.92800
O307        O  0.02270953  0.18681197  0.93448558    -0.91600
C308        C  0.01248581  0.23679376  0.84402440     1.17400
H309        H  0.08138813  0.25108262  0.91114110     0.33400
H310        H  0.00966053  0.21127446  0.95802184     0.44200
H311        H  0.02271369  0.26617344  0.87839957     0.37700
H312        H  0.05434119  0.28993206  0.97666201     0.34200
H313        H  0.05077801  0.19535437  0.97488977     0.26000
H314        H  0.00992859  0.25624173  0.02970070     0.32000
H315        H  0.01568084  0.29242248  0.97126261     0.37900
H316        H  0.04464795  0.20168994  0.88835022     0.32300
H317        H  0.05745165  0.23257631  0.84470474     0.31200
H318        H  0.06871692  0.26934496  0.82683581     0.32900
H319        H  0.03543057  0.31607836  0.89328486     0.31800
H320        H  0.01268721  0.18645031  0.92210663     0.35800
H321        H  0.99135237  0.19581773  0.88844682     0.28600
H322        H  0.11405593  0.30316858  0.97597273     0.32800
H323        H  0.05521833  0.32869703  0.93352669     0.35700
H324        H  0.07831255  0.24508112  0.85706861     0.28300
H325        H  0.98210280  0.19135456  0.91743883     0.41100
H326        H  0.01795170  0.21394158  0.01470642     0.31200
H327        H  0.05101353  0.21165538  0.99301362     0.38800
H328        H  0.02659789  0.29723398  0.87574168     0.30700
H329        H  0.02134514  0.27603288  0.01394597     0.30700
H330        H  0.10354421  0.31490741  0.96823136     0.31000
Zr331      Zr  0.13569078  0.39827000  0.21447432     2.17500
O332        O  0.13580000  0.36809420  0.20516409    -0.51400
O333        O  0.17058370  0.41415585  0.20454604    -0.74600
O334        O  0.12867529  0.38746754  0.16711968    -0.81400
O335        O  0.13387805  0.38800845  0.29083908    -0.83100
O336        O  0.11551209  0.40392471  0.14649984    -0.78700
O337        O  0.13895672  0.37826638  0.24980956    -0.90400
O338        O  0.18422514  0.44614927  0.21527793    -0.76300
O339        O  0.14460329  0.42916734  0.19444836    -0.85800
O340        O  0.15042033  0.42169927  0.24987223    -0.85500
O341        O  0.10543686  0.39533181  0.19895841    -0.72300
O342        O  0.11133018  0.38881265  0.24947930    -0.84400
Zr343      Zr  0.10412900  0.44033327  0.24991065     2.26400
Zr344      Zr  0.11468044  0.42669429  0.17937591     2.06300
Zr345      Zr  0.12606410  0.41309167  0.28397084     2.10000
Zr346      Zr  0.15848715  0.45225544  0.23044878     1.78800
O347        O  0.11287898  0.39250489  0.32413625    -0.93200
O348        O  0.17440189  0.47607054  0.19420761    -0.41000
O349        O  0.13455570  0.44409461  0.26564023    -0.77600
O350        O  0.12883518  0.45029531  0.21501406    -0.96300
O351        O  0.09038848  0.41724383  0.21394920    -0.89600
O352        O  0.09584057  0.40961881  0.26918994    -0.92500
C353        C  0.18531261  0.43140135  0.20690835     1.01300
C354        C  0.13785222  0.37732665  0.27592362     1.14200
C355        C  0.12061125  0.39085529  0.14675886     1.05000
O356        O  0.13955935  0.44991022  0.14863927    -0.94600
O357        O  0.10337778  0.45031950  0.17373556    -0.90400
O358        O  0.09487819  0.45614818  0.21547539    -0.83500
C359        C  0.09653248  0.45841940  0.18955679     1.11600
O360        O  0.07254449  0.35244668  0.23040048    -0.96600
Zr361      Zr  0.08174397  0.38665358  0.23371886     1.88900
O362        O  0.06875641  0.42576209  0.25277228    -0.73200
O363        O  0.08951392  0.41771956  0.14488936    -0.52500
O364        O  0.06071924  0.36985893  0.19513546    -0.97200
O365        O  0.06226381  0.36819673  0.27287914    -0.54400
O366        O  0.05664007  0.39543334  0.23514437    -0.73800
C367        C  0.05474226  0.40964913  0.24367178     0.98600
O368        O  0.11425964  0.47353736  0.26389734    -0.62600
O369        O  0.15616668  0.43312495  0.30881680    -0.57400
O370        O  0.10123418  0.44292370  0.29946017    -0.94100
O371        O  0.11356669  0.42522136  0.31855337    -0.92500
O372        O  0.18187876  0.46402154  0.26772633    -0.92800
O373        O  0.16815249  0.48529553  0.24441067    -0.91600
C374        C  0.10537146  0.43554230  0.32005882     1.17400
H375        H  0.16172953  0.42170681  0.25719352     0.33400
H376        H  0.13206597  0.46298814  0.20816700     0.44200
H377        H  0.08661477  0.40621093  0.28388121     0.37700
H378        H  0.09879645  0.38480163  0.18630352     0.34200
H379        H  0.18828092  0.48334697  0.19954672     0.26000
H380        H  0.09647415  0.42115123  0.12724736     0.32000
H381        H  0.06100335  0.38034348  0.18382389     0.37900
H382        H  0.19185896  0.46054034  0.26293225     0.32300
H383        H  0.15196396  0.43491276  0.32701234     0.31200
H384        H  0.12317179  0.39863103  0.33814316     0.32900
H385        H  0.05483700  0.37460100  0.27839486     0.31800
H386        H  0.15600227  0.48590558  0.24384253     0.35800
H387        H  0.12541222  0.47717052  0.27626165     0.28600
H388        H  0.14527515  0.37107811  0.19026173     0.32800
H389        H  0.05825560  0.34497548  0.23285356     0.35700
H390        H  0.16160411  0.42446179  0.31211231     0.28300
H391        H  0.12020475  0.48167625  0.24752559     0.41100
H392        H  0.13435330  0.44520077  0.13017865     0.31200
H393        H  0.17408185  0.46832865  0.17826218     0.38800
H394        H  0.07170958  0.37104852  0.28778551     0.30700
H395        H  0.08200545  0.40331971  0.14511352     0.30700
H396        H  0.12292426  0.35902414  0.19721155     0.31000
Zr397      Zr  0.13534764  0.75534952  0.71072031     2.17500
O398        O  0.13515314  0.78372102  0.69169371    -0.51400
O399        O  0.16998834  0.77361545  0.70186868    -0.74600
O400        O  0.14161103  0.78031502  0.74485345    -0.81400
O401        O  0.11457227  0.72707801  0.64469158    -0.83100
O402        O  0.13553527  0.76605464  0.78652644    -0.78700
O403        O  0.12632988  0.75697440  0.66381128    -0.90400
O404        O  0.18450987  0.75856989  0.72252053    -0.76300
O405        O  0.14833151  0.74733556  0.74896079    -0.85800
O406        O  0.14603358  0.73396382  0.69411196    -0.85500
O407        O  0.10922305  0.74090775  0.74317793    -0.72300
O408        O  0.10692285  0.72731536  0.69370191    -0.84400
Zr409      Zr  0.10393763  0.68233466  0.74912315     2.26400
Zr410      Zr  0.12218837  0.73179566  0.78075551     2.06300
Zr411      Zr  0.11750252  0.70563919  0.67794028     2.10000
Zr412      Zr  0.15853898  0.72572976  0.73288600     1.78800
O413        O  0.09600075  0.68832893  0.64006893    -0.93200
O414        O  0.17902226  0.73630605  0.77330187    -0.41000
O415        O  0.13012406  0.69716723  0.71653179    -0.77600
O416        O  0.13300837  0.71011383  0.76600249    -0.96300
O417        O  0.09351590  0.70401531  0.76461574    -0.89600
O418        O  0.09158272  0.69067394  0.71014268    -0.92500
C419        C  0.18504397  0.77288082  0.70954623     1.01300
C420        C  0.11853865  0.74492014  0.64407630     1.14200
C421        C  0.14118547  0.78084433  0.77097733     1.05000
O422        O  0.14591396  0.74487690  0.81743911    -0.94600
O423        O  0.11379792  0.70833525  0.81690331    -0.90400
O424        O  0.10157657  0.67808341  0.79893298    -0.83500
C425        C  0.10650064  0.68989832  0.81922103     1.11600
O426        O  0.07050416  0.73581184  0.71674885    -0.96600
Zr427      Zr  0.08126554  0.71242931  0.72595866     1.88900
O428        O  0.06853340  0.66189198  0.75261002    -0.73200
O429        O  0.09799974  0.73506730  0.80707270    -0.52500
O430        O  0.06225742  0.71499733  0.76296109    -0.97200
O431        O  0.06198310  0.70462968  0.68440602    -0.54400
O432        O  0.05584595  0.67932184  0.73353684    -0.73800
C433        C  0.05425251  0.66375175  0.74389945     0.98600
O434        O  0.11418098  0.65954328  0.76459252    -0.62600
O435        O  0.14455303  0.70910344  0.65039732    -0.57400
O436        O  0.09695451  0.65680646  0.71626806    -0.94100
O437        O  0.10821433  0.67124453  0.67501760    -0.92500
O438        O  0.17626436  0.72124470  0.69583704    -0.92800
O439        O  0.17017470  0.70353142  0.74500669    -0.91600
C440        C  0.10062400  0.65633534  0.69092823     1.17400
H441        H  0.15557888  0.73992853  0.67983642     0.33400
H442        H  0.13803210  0.70627775  0.78124119     0.44200
H443        H  0.08098594  0.67928039  0.70186033     0.37700
H444        H  0.10544648  0.75017510  0.74873797     0.34200
H445        H  0.19245738  0.74182369  0.76633996     0.26000
H446        H  0.10420862  0.73990847  0.82502871     0.32000
H447        H  0.05951329  0.70409669  0.77543792     0.37900
H448        H  0.19004630  0.72831049  0.70164963     0.32300
H449        H  0.14096129  0.69563009  0.64542752     0.31200
H450        H  0.10470759  0.68830299  0.62568201     0.32900
H451        H  0.06196704  0.69303495  0.67699289     0.31800
H452        H  0.15847124  0.69043810  0.74407738     0.35800
H453        H  0.12213987  0.65890158  0.74956970     0.28600
H454        H  0.14796846  0.79505006  0.69629324     0.32800
H455        H  0.05611457  0.72823577  0.71719266     0.35700
H456        H  0.14353451  0.71502139  0.63315616     0.28300
H457        H  0.12379665  0.66647817  0.77917583     0.41100
H458        H  0.15302596  0.73761302  0.81638244     0.31200
H459        H  0.17834947  0.74773941  0.77987063     0.38800
H460        H  0.07013986  0.71521204  0.67149693     0.30700
H461        H  0.09749019  0.74620635  0.79883101     0.30700
H462        H  0.12559889  0.78538031  0.70258044     0.31000
Zr463      Zr  0.07474291  0.82049961  0.44754353     2.17500
O464        O  0.10349069  0.81964759  0.46310141    -0.51400
O465        O  0.09232181  0.85501744  0.45885530    -0.74600
O466        O  0.09854833  0.82876882  0.41083945    -0.81400
O467        O  0.04821400  0.79179204  0.51156192    -0.83100
O468        O  0.08400646  0.82982167  0.37159163    -0.78700
O469        O  0.07829700  0.81002014  0.49283033    -0.90400
O470        O  0.07400344  0.86822707  0.44560820    -0.76300
O471        O  0.06449555  0.83541953  0.41444377    -0.85800
O472        O  0.05184029  0.82689677  0.46996283    -0.85500
O473        O  0.06108137  0.79693579  0.41146558    -0.72300
O474        O  0.04843432  0.78961084  0.46148892    -0.84400
Zr475      Zr  0.00053025  0.78641461  0.41291982     2.26400
Zr476      Zr  0.04980012  0.81174477  0.37924388     2.06300
Zr477      Zr  0.02517129  0.79582725  0.48309079     2.10000
Zr478      Zr  0.04127814  0.84120400  0.43627873     1.78800
O479        O  0.00766916  0.76763780  0.51271652    -0.93200
O480        O  0.04697022  0.86451147  0.40010759    -0.41000
O481        O  0.01467286  0.81000589  0.44895963    -0.77600
O482        O  0.02634456  0.81823991  0.39957327    -0.96300
O483        O  0.02395566  0.78044521  0.39201952    -0.89600
O484        O  0.01104968  0.77254132  0.44744415    -0.92500
C485        C  0.08984849  0.86963226  0.45468527     1.01300
C486        C  0.06675065  0.79882096  0.51145108     1.14200
C487        C  0.09873907  0.83228565  0.38522997     1.05000
O488        O  0.05764466  0.83693721  0.34510087    -0.94600
O489        O  0.02575087  0.80257111  0.34437816    -0.90400
O490        O  0.99572209  0.78513738  0.36318199    -0.83500
C491        C  0.00724562  0.79261541  0.34264225     1.11600
O492        O  0.05875938  0.75635189  0.42932270    -0.96600
Zr493      Zr  0.03430451  0.76631801  0.42601217     1.88900
O494        O  0.98130739  0.75067691  0.40879250    -0.73200
O495        O  0.05706503  0.79263161  0.34766001    -0.52500
O496        O  0.03644093  0.75137570  0.38384174    -0.97200
O497        O  0.02981129  0.74498821  0.46451625    -0.54400
O498        O  0.00172178  0.73938068  0.42009257    -0.73800
C499        C  0.98489021  0.73685182  0.41415685     0.98600
O500        O  0.97568109  0.79479175  0.40125633    -0.62600
O501        O  0.02807958  0.81778486  0.51965231    -0.57400
O502        O  0.97616162  0.77870763  0.44795846    -0.94100
O503        O  0.99146384  0.78837452  0.48895916    -0.92500
O504        O  0.03606690  0.85323317  0.47920035    -0.92800
O505        O  0.01725299  0.85172948  0.43441471    -0.91600
C506        C  0.97629745  0.78171987  0.47364625     1.17400
H507        H  0.05763924  0.83530308  0.48544336     0.33400
H508        H  0.02151607  0.82369933  0.38619824     0.44200
H509        H  0.00033521  0.76100133  0.45533465     0.37700
H510        H  0.07076517  0.79457153  0.40335013     0.34200
H511        H  0.05192301  0.87713954  0.40950687     0.26000
H512        H  0.04447806  0.78055970  0.34478237     0.32000
H513        H  0.02391774  0.74709812  0.37442357     0.37900
H514        H  0.04508407  0.86746451  0.47864458     0.32300
H515        H  0.01534810  0.81114331  0.52904426     0.31200
H516        H  0.00722536  0.77314363  0.53057334     0.32900
H517        H  0.01704358  0.74173912  0.47230653     0.31800
H518        H  0.00762360  0.84308851  0.42079414     0.35800
H519        H  0.97735330  0.80470347  0.41485457     0.28600
H520        H  0.11470214  0.83253918  0.45845177     0.32800
H521        H  0.05181828  0.74226105  0.42513963     0.35700
H522        H  0.03723294  0.81717722  0.53277249     0.28300
H523        H  0.97996638  0.80223949  0.38401759     0.41100
H524        H  0.04942976  0.84264874  0.34974782     0.31200
H525        H  0.05838507  0.86577703  0.39017642     0.38800
H526        H  0.03936632  0.75350776  0.47830926     0.30700
H527        H  0.05969081  0.79970998  0.33013558     0.30700
H528        H  0.10462092  0.81034396  0.45091406     0.31000
Zr529      Zr  0.83443094  0.60222803  0.78716502     2.17500
O530        O  0.83421721  0.63134012  0.80264415    -0.51400
O531        O  0.80014305  0.58563716  0.79903776    -0.74600
O532        O  0.82778189  0.61948730  0.75058599    -0.81400
O533        O  0.86199385  0.60286165  0.85118857    -0.83100
O534        O  0.82957830  0.60659836  0.71029480    -0.78700
O535        O  0.84439517  0.61557335  0.83277870    -0.90400
O536        O  0.78584197  0.55424682  0.78504712    -0.76300
O537        O  0.81918739  0.57758303  0.75357769    -0.85800
O538        O  0.82687289  0.57227246  0.80915574    -0.85500
O539        O  0.85824577  0.61163724  0.75150065    -0.72300
O540        O  0.86484751  0.60571692  0.80198329    -0.84400
Zr541      Zr  0.86665338  0.56061632  0.75287983     2.26400
Zr542      Zr  0.84306240  0.58604090  0.71862334     2.06300
Zr543      Zr  0.85742027  0.57550916  0.82295205     2.10000
Zr544      Zr  0.81234652  0.54791307  0.77497850     1.78800
O545        O  0.88189647  0.58410020  0.85827369    -0.93200
O546        O  0.78878581  0.53081507  0.73898319    -0.41000
O547        O  0.84287266  0.55105308  0.78870141    -0.77600
O548        O  0.83549927  0.55563947  0.73858883    -0.96300
O549        O  0.87377154  0.59057785  0.73252557    -0.89600
O550        O  0.88104013  0.58466794  0.78762486    -0.92500
C551        C  0.78518450  0.56883235  0.79509766     1.01300
C552        C  0.85537630  0.61473343  0.85130621     1.14200
C553        C  0.82639498  0.61815767  0.72446019     1.05000
O554        O  0.81420198  0.56537503  0.69186571    -0.94600
O555        O  0.85479894  0.57318713  0.68370352    -0.90400
O556        O  0.86885692  0.55733419  0.70347851    -0.83500
C557        C  0.86366156  0.56343162  0.68250650     1.11600
O558        O  0.89762733  0.64866802  0.77362281    -0.96600
Zr559      Zr  0.88834083  0.61465396  0.76669775     1.88900
O560        O  0.90165339  0.57607478  0.74559914    -0.73200
O561        O  0.85995413  0.60856321  0.68131139    -0.52500
O562        O  0.90256665  0.63424365  0.72593730    -0.97200
O563        O  0.91165398  0.62967342  0.80371005    -0.54400
O564        O  0.91426032  0.60834608  0.75434317    -0.73800
C565        C  0.91586364  0.59360323  0.74763325     0.98600
O566        O  0.85591968  0.52680905  0.74186380    -0.62600
O567        O  0.83325612  0.55461850  0.85639508    -0.57400
O568        O  0.87724703  0.54549209  0.78639633    -0.94100
O569        O  0.86888257  0.55188739  0.82780357    -0.92500
O570        O  0.80017889  0.52972412  0.81731310    -0.92800
O571        O  0.80014254  0.51310637  0.77097482    -0.91600
C572        C  0.87568557  0.54354786  0.81233955     1.17400
H573        H  0.81831022  0.56969624  0.82445692     0.33400
H574        H  0.83001995  0.54553942  0.72503177     0.44200
H575        H  0.89262494  0.58527786  0.79487897     0.37700
H576        H  0.86120715  0.62398087  0.74359428     0.34200
H577        H  0.77598257  0.52447100  0.74820421     0.26000
H578        H  0.84966833  0.60754440  0.66886211     0.32000
H579        H  0.91671602  0.63926753  0.72762369     0.37900
H580        H  0.78639448  0.52637053  0.81826006     0.32300
H581        H  0.83941926  0.54822240  0.86630829     0.31200
H582        H  0.87441645  0.57785704  0.87502199     0.32900
H583        H  0.91678890  0.62078127  0.80720844     0.31800
H584        H  0.81193398  0.51185115  0.77133938     0.35800
H585        H  0.84863493  0.51932314  0.75812802     0.28600
H586        H  0.82126946  0.62940557  0.79771441     0.32800
H587        H  0.91181527  0.65626254  0.77026626     0.35700
H588        H  0.83286059  0.56372122  0.86976927     0.28300
H589        H  0.84572890  0.52327490  0.72785469     0.41100
H590        H  0.81603600  0.57266135  0.67470245     0.31200
H591        H  0.78878397  0.54124934  0.72791004     0.38800
H592        H  0.90362038  0.62820821  0.81990547     0.30700
H593        H  0.86565168  0.62170214  0.68939906     0.30700
H594        H  0.84355968  0.64211478  0.79085601     0.31000
Zr595      Zr  0.90381751  0.73487739  0.04384601     2.17500
O596        O  0.87381138  0.70742466  0.02651685    -0.51400
O597        O  0.88620123  0.75135605  0.03050773    -0.74600
O598        O  0.87993942  0.71656534  0.07986884    -0.81400
O599        O  0.93181965  0.73612086  0.97931948    -0.83100
O600        O  0.89361217  0.73033603  0.12031349    -0.78700
O601        O  0.90213822  0.72015658  0.99968439    -0.90400
O602        O  0.90288396  0.78286128  0.04410290    -0.76300
O603        O  0.91261607  0.75902099  0.07804050    -0.85800
O604        O  0.92606082  0.76527638  0.02279038    -0.85500
O605        O  0.91806850  0.72534807  0.07968089    -0.72300
O606        O  0.93123001  0.73227853  0.02940103    -0.84400
Zr607      Zr  0.97738689  0.77712438  0.08015940     2.26400
Zr608      Zr  0.92783815  0.75038571  0.11314094     2.06300
Zr609      Zr  0.95376462  0.76284318  0.00917091     2.10000
Zr610      Zr  0.93522818  0.78911904  0.05757692     1.78800
O611        O  0.97030622  0.75427979  0.97489781    -0.93200
O612        O  0.92570080  0.80362852  0.09366944    -0.41000
O613        O  0.96302985  0.78668354  0.04422486    -0.77600
O614        O  0.95053424  0.78123043  0.09405784    -0.96300
O615        O  0.95469337  0.74676462  0.09974873    -0.89600
O616        O  0.96816210  0.75370391  0.04461153    -0.92500
C617        C  0.88791090  0.76818325  0.03363315     1.01300
C618        C  0.91385716  0.72257063  0.98009296     1.14200
C619        C  0.87929977  0.71823149  0.10584315     1.05000
O620        O  0.91797154  0.76829425  0.14313263    -0.94600
O621        O  0.95187208  0.76417898  0.14852206    -0.90400
O622        O  0.98208433  0.77982296  0.12985299    -0.83500
C623        C  0.97041962  0.77397476  0.15039265     1.11600
O624        O  0.92067473  0.68907438  0.06179100    -0.96600
Zr625      Zr  0.94567687  0.72329807  0.06476810     1.88900
O626        O  0.99768853  0.76188796  0.08418120    -0.73200
O627        O  0.92212036  0.72561166  0.14714090    -0.52500
O628        O  0.94411199  0.70510939  0.10563859    -0.97200
O629        O  0.95204192  0.70812749  0.02606199    -0.54400
O630        O  0.97858446  0.73024600  0.07165980    -0.73800
C631        C  0.99495199  0.74487598  0.07843325     0.98600
O632        O  0.00102928  0.81033956  0.09364514    -0.62600
O633        O  0.95008068  0.78335090  0.97545190    -0.57400
O634        O  0.00271250  0.79427923  0.04669189    -0.94100
O635        O  0.98847165  0.78764929  0.00481382    -0.92500
O636        O  0.94206577  0.80933972  0.01713704    -0.92800
O637        O  0.95885832  0.82341104  0.06406214    -0.91600
C638        C  0.00329704  0.79642728  0.02076742     1.17400
H639        H  0.92024882  0.76800559  0.00741448     0.33400
H640        H  0.95485997  0.79118706  0.10784464     0.44200
H641        H  0.97924274  0.75355420  0.03684333     0.37700
H642        H  0.90884229  0.71285378  0.08722087     0.34200
H643        H  0.92034304  0.81091170  0.08406832     0.26000
H644        H  0.91406300  0.72701629  0.16132513     0.32000
H645        H  0.95061322  0.69767320  0.10064612     0.37900
H646        H  0.93345353  0.81498367  0.01868170     0.32300
H647        H  0.96316254  0.79501136  0.97392654     0.31200
H648        H  0.97186573  0.76272069  0.95909913     0.32900
H649        H  0.96496226  0.71812062  0.01922190     0.31800
H650        H  0.97109326  0.82360675  0.06870837     0.35800
H651        H  0.00091574  0.81870599  0.07872805     0.28600
H652        H  0.86305212  0.70897074  0.03385125     0.32800
H653        H  0.92773108  0.68173016  0.06137244     0.35700
H654        H  0.94818405  0.77642011  0.95800296     0.28300
H655        H  0.99500759  0.81336776  0.10909561     0.41100
H656        H  0.92987564  0.78099873  0.14615018     0.31200
H657        H  0.91424600  0.79251271  0.10225229     0.38800
H658        H  0.94285149  0.70730434  0.01177619     0.30700
H659        H  0.91332853  0.71300407  0.13831463     0.30700
H660        H  0.87258739  0.69574766  0.03575514     0.31000
Zr661      Zr  0.05136943  0.58580231  0.11539008     2.17500
O662        O  0.01866353  0.55963137  0.12628808    -0.51400
O663        O  0.06579273  0.56607815  0.12843291    -0.74600
O664        O  0.03676397  0.56195347  0.07797156    -0.81400
O665        O  0.05155876  0.61195951  0.17995199    -0.83100
O666        O  0.05058361  0.57735649  0.03825423    -0.78700
O667        O  0.03912535  0.58166048  0.16176176    -0.90400
O668        O  0.09764378  0.58295048  0.11630191    -0.76300
O669        O  0.07684671  0.59473697  0.08340160    -0.85800
O670        O  0.08089169  0.60755460  0.13867234    -0.85500
O671        O  0.04387127  0.60127697  0.07896593    -0.72300
O672        O  0.04851442  0.61338920  0.12908216    -0.84400
Zr673      Zr  0.09663451  0.65999640  0.08224339     2.26400
Zr674      Zr  0.07027936  0.61109496  0.04782408     2.06300
Zr675      Zr  0.07829123  0.63535180  0.15143958     2.10000
Zr676      Zr  0.10612151  0.61646703  0.10609355     1.78800
O677        O  0.06692434  0.65226112  0.18085571    -0.93200
O678        O  0.12233977  0.60754309  0.07172317    -0.41000
O679        O  0.10383631  0.64444293  0.11910871    -0.77600
O680        O  0.10042464  0.63288642  0.06896075    -0.96300
O681        O  0.06698155  0.63825220  0.06022755    -0.89600
O682        O  0.07139544  0.65096116  0.11510259    -0.92500
C683        C  0.08253138  0.56757157  0.12512819     1.01300
C684        C  0.04002205  0.59341409  0.18038635     1.14200
C685        C  0.03912428  0.56225152  0.05194473     1.05000
O686        O  0.09092026  0.60295641  0.02097114    -0.94600
O687        O  0.08530491  0.63547658  0.01340491    -0.90400
O688        O  0.10061022  0.66547434  0.03265044    -0.83500
C689        C  0.09506623  0.65401765  0.01189253     1.11600
O690        O  0.00746224  0.60732387  0.10162392    -0.96600
Zr691      Zr  0.04188054  0.62921167  0.09269205     1.88900
O692        O  0.08303436  0.68102186  0.07403934    -0.73200
O693        O  0.04640396  0.60431582  0.01214413    -0.52500
O694        O  0.02285445  0.62271054  0.05113591    -0.97200
O695        O  0.02701331  0.64029908  0.12633386    -0.54400
O696        O  0.05021489  0.66154748  0.07749890    -0.73800
C697        C  0.06557924  0.67793670  0.07297161     0.98600
O698        O  0.13076146  0.68231921  0.07177301    -0.62600
O699        O  0.09730175  0.63265532  0.18832647    -0.57400
O700        O  0.11168971  0.68496496  0.11699656    -0.94100
O701        O  0.10376226  0.66946276  0.15804701    -0.92500
O702        O  0.12401539  0.61987987  0.14794679    -0.92800
O703        O  0.14063237  0.63999855  0.10170401    -0.91600
C704        C  0.11311950  0.68475887  0.14302874     1.17400
H705        H  0.08279073  0.60139292  0.15442216     0.33400
H706        H  0.11084270  0.63714371  0.05589940     0.44200
H707        H  0.07102590  0.66215586  0.12195609     0.37700
H708        H  0.03176312  0.59212363  0.07037903     0.34200
H709        H  0.12990033  0.60288930  0.08220361     0.26000
H710        H  0.04516144  0.61611261  0.01120517     0.32000
H711        H  0.03104070  0.63371642  0.03884122     0.37900
H712        H  0.12890108  0.61064898  0.14597334     0.32300
H713        H  0.11098873  0.64135860  0.18283359     0.31200
H714        H  0.07247070  0.65242619  0.19897421     0.32900
H715        H  0.03455849  0.65469010  0.12559589     0.31800
H716        H  0.14106430  0.65124326  0.09224020     0.35800
H717        H  0.13793465  0.68239223  0.08832031     0.28600
H718        H  0.01885032  0.54738128  0.12338124     0.32800
H719        H  0.00613902  0.59426140  0.10301131     0.35700
H720        H  0.09530645  0.63937976  0.20385603     0.28300
H721        H  0.13422861  0.67541376  0.05811538     0.41100
H722        H  0.08299942  0.59616342  0.00479961     0.31200
H723        H  0.11178735  0.59566524  0.06314631     0.38800
H724        H  0.03049734  0.63696998  0.14411092     0.30700
H725        H  0.05302780  0.60450220  0.99499705     0.30700
H726        H  0.01023045  0.55996294  0.11167206     0.31000
Zr727      Zr  0.92638456  0.52145001  0.38362846     2.17500
O728        O  0.95655064  0.52315079  0.36896837    -0.51400
O729        O  0.91136474  0.48837231  0.36658297    -0.74600
O730        O  0.94213850  0.51242541  0.41946757    -0.81400
O731        O  0.92720375  0.55186176  0.32223506    -0.83100
O732        O  0.92657398  0.50975643  0.45934899    -0.78700
O733        O  0.94149414  0.53546123  0.33971118    -0.90400
O734        O  0.87956962  0.47240945  0.37902293    -0.76300
O735        O  0.90098016  0.50377746  0.41556319    -0.85800
O736        O  0.89672671  0.51407649  0.36116857    -0.85500
O737        O  0.93397351  0.54280784  0.42206814    -0.72300
O738        O  0.92915222  0.55208529  0.37231861    -0.84400
Zr739      Zr  0.88166563  0.54949596  0.42130003     2.26400
Zr740      Zr  0.90756323  0.52524708  0.45316126     2.06300
Zr741      Zr  0.89932251  0.54482471  0.35071227     2.10000
Zr742      Zr  0.87161452  0.49702994  0.39371868     1.78800
O743        O  0.90797080  0.57294390  0.32173686    -0.93200
O744        O  0.85689607  0.47149324  0.42805087    -0.41000
O745        O  0.87399937  0.52774678  0.38321735    -0.77600
O746        O  0.87756194  0.51801018  0.43223349    -0.96300
O747        O  0.91123607  0.55624032  0.44264828    -0.89600
O748        O  0.90664538  0.56630275  0.38837456    -0.92500
C749        C  0.89469835  0.47294396  0.36873271     1.01300
C750        C  0.94006233  0.54653437  0.32176865     1.14200
C751        C  0.93909927  0.50818018  0.44495751     1.05000
O752        O  0.88806989  0.49663513  0.48124126    -0.94600
O753        O  0.89171761  0.53254693  0.48933450    -0.90400
O754        O  0.87845843  0.54965650  0.47110153    -0.83500
C755        C  0.88277507  0.54217050  0.49141220     1.11600
O756        O  0.97046752  0.58460792  0.40181429    -0.96600
Zr757      Zr  0.93617640  0.57316921  0.41008372     1.88900
O758        O  0.89580149  0.58444436  0.42928135    -0.73200
O759        O  0.93234063  0.54269908  0.48758572    -0.52500
O760        O  0.95608118  0.58708511  0.45056837    -0.97200
O761        O  0.95029318  0.59784632  0.37445593    -0.54400
O762        O  0.92857865  0.59744505  0.42577126    -0.73800
C763        C  0.91337540  0.59874750  0.43021585     0.98600
O764        O  0.84800115  0.53767736  0.43472734    -0.62600
O765        O  0.88210184  0.52316302  0.31289964    -0.57400
O766        O  0.86543230  0.55908180  0.38762992    -0.94100
O767        O  0.87337760  0.55275424  0.34584621    -0.92500
O768        O  0.85285260  0.48563598  0.35177843    -0.92800
O769        O  0.83677273  0.48428460  0.39822415    -0.91600
C770        C  0.86389256  0.55803440  0.36155013     1.17400
H771        H  0.89477477  0.50650117  0.34494688     0.33400
H772        H  0.86711181  0.51148048  0.44515385     0.44200
H773        H  0.90703659  0.57808272  0.38214573     0.37700
H774        H  0.94613322  0.54552960  0.43029709     0.34200
H775        H  0.84941891  0.45931146  0.41757536     0.26000
H776        H  0.93132629  0.55436422  0.49174014     0.32000
H777        H  0.96023604  0.57768167  0.45597404     0.37900
H778        H  0.85464701  0.47480667  0.34544404     0.32300
H779        H  0.87081398  0.52495943  0.30944401     0.31200
H780        H  0.90291261  0.56741566  0.30352299     0.32900
H781        H  0.94180244  0.60365446  0.37338255     0.31800
H782        H  0.83556521  0.49205580  0.41302061     0.35800
H783        H  0.84019781  0.53105047  0.41839150     0.28600
H784        H  0.95465629  0.50996038  0.37193832     0.32800
H785        H  0.97054334  0.57687381  0.38608329     0.35700
H786        H  0.89070224  0.52918522  0.29697363     0.28300
H787        H  0.84487094  0.52690493  0.44766226     0.41100
H788        H  0.89518912  0.49944332  0.49871929     0.31200
H789        H  0.86790968  0.47055410  0.43583386     0.38800
H790        H  0.94772722  0.59040951  0.35732608     0.30700
H791        H  0.92742009  0.53451120  0.50414098     0.30700
H792        H  0.96657782  0.53157009  0.38232887     0.31000
Zr793      Zr  0.74699034  0.61939914  0.28741309     2.17500
O794        O  0.77631224  0.65073702  0.29495860    -0.51400
O795        O  0.76563708  0.60365961  0.29954675    -0.74600
O796        O  0.75115197  0.62968943  0.33486960    -0.81400
O797        O  0.75455443  0.62817619  0.21083156    -0.83100
O798        O  0.72274276  0.61095678  0.35752546    -0.78700
O799        O  0.77059664  0.63716566  0.25122089    -0.90400
O800        O  0.74881676  0.57190010  0.28712132    -0.76300
O801        O  0.72624782  0.58816068  0.30715350    -0.85800
O802        O  0.73806874  0.59637412  0.25159492    -0.85500
O803        O  0.71959474  0.62122933  0.30500862    -0.72300
O804        O  0.73093670  0.62878440  0.25410565    -0.84400
Zr805      Zr  0.67259442  0.57558734  0.25464641     2.26400
Zr806      Zr  0.69857655  0.58940840  0.32408409     2.06300
Zr807      Zr  0.72115105  0.60494045  0.21920649     2.10000
Zr808      Zr  0.71706939  0.56542472  0.27085312     1.78800
O809        O  0.72211523  0.62871384  0.18681166    -0.93200
O810        O  0.71027567  0.54155134  0.30666011    -0.41000
O811        O  0.69988613  0.57339220  0.23745791    -0.77600
O812        O  0.68902499  0.56611618  0.28784004    -0.96300
O813        O  0.68244203  0.59836518  0.29092040    -0.89600
O814        O  0.69386785  0.60677158  0.23555674    -0.92500
C815        C  0.76381001  0.58671409  0.29720209     1.01300
C816        C  0.76991878  0.63781505  0.22508305     1.14200
C817        C  0.74054198  0.62487751  0.35639368     1.05000
O818        O  0.70009721  0.56633981  0.35534292    -0.94600
O819        O  0.66431248  0.56454900  0.33119372    -0.90400
O820        O  0.64882395  0.55849652  0.29022754    -0.83500
C821        C  0.64903864  0.55602342  0.31603874     1.11600
O822        O  0.72816052  0.66374833  0.26928232    -0.96600
Zr823      Zr  0.70315011  0.62945808  0.27172936     1.88900
O824        O  0.65080540  0.58954104  0.25618296    -0.73200
O825        O  0.68264649  0.59979780  0.35685710    -0.52500
O826        O  0.70088299  0.64526334  0.31297609    -0.97200
O827        O  0.69711329  0.64729361  0.23606427    -0.54400
O828        O  0.66909322  0.61934226  0.27534545    -0.73800
C829        C  0.65282389  0.60516972  0.26732739     0.98600
O830        O  0.64948547  0.54200403  0.24206798    -0.62600
O831        O  0.73421833  0.59117587  0.18689923    -0.57400
O832        O  0.66661928  0.57180518  0.20491928    -0.94100
O833        O  0.69664194  0.58788035  0.18567612    -0.92500
O834        O  0.73067076  0.55677144  0.23252839    -0.92800
O835        O  0.69644272  0.53180942  0.25659653    -0.91600
C836        C  0.67816577  0.57741169  0.18417661     1.17400
H837        H  0.74934347  0.59675194  0.24355830     0.33400
H838        H  0.68010018  0.55323240  0.29462902     0.44200
H839        H  0.68757313  0.60979596  0.22106406     0.37700
H840        H  0.72347257  0.63140275  0.31830525     0.34200
H841        H  0.71869906  0.53599514  0.30239553     0.26000
H842        H  0.68605722  0.59676632  0.37490275     0.32000
H843        H  0.69134989  0.64945734  0.30863017     0.37900
H844        H  0.73948682  0.55270992  0.24074936     0.32300
H845        H  0.72462272  0.57708026  0.18659877     0.31200
H846        H  0.72712449  0.62619440  0.16977662     0.32900
H847        H  0.69365796  0.65600351  0.24594906     0.31800
H848        H  0.68385473  0.53084672  0.25195569     0.35800
H849        H  0.65568291  0.53896004  0.22685650     0.28600
H850        H  0.78363912  0.64849863  0.30949021     0.32800
H851        H  0.72253762  0.67108266  0.27792087     0.35700
H852        H  0.73293550  0.59604230  0.16887531     0.28300
H853        H  0.64986470  0.53399558  0.25730269     0.41100
H854        H  0.71293040  0.57370401  0.36433155     0.31200
H855        H  0.71612219  0.54938670  0.32324034     0.38800
H856        H  0.68480213  0.63768094  0.22727868     0.30700
H857        H  0.68985031  0.61418449  0.35575179     0.30700
H858        H  0.77184930  0.65917934  0.30326896     0.31000
Zr859      Zr  0.80718785  0.73527756  0.56390793     2.17500
O860        O  0.81094012  0.70686232  0.55704643    -0.51400
O861        O  0.84115864  0.75122479  0.54873580    -0.74600
O862        O  0.79605923  0.72080178  0.51895750    -0.81400
O863        O  0.80870392  0.72923352  0.64124887    -0.83100
O864        O  0.78579587  0.73870654  0.49512063    -0.78700
O865        O  0.81074784  0.71639094  0.60097952    -0.90400
O866        O  0.85619130  0.78313749  0.56026900    -0.76300
O867        O  0.81490601  0.76480637  0.54071622    -0.85800
O868        O  0.82390766  0.76076188  0.59612560    -0.85500
O869        O  0.77615467  0.73143338  0.55018841    -0.72300
O870        O  0.78475323  0.72821122  0.60084653    -0.84400
Zr871      Zr  0.77740248  0.77963315  0.59625012     2.26400
Zr872      Zr  0.78424369  0.76147377  0.52735164     2.06300
Zr873      Zr  0.80129103  0.75446229  0.63204639     2.10000
Zr874      Zr  0.83083002  0.79001800  0.57354709     1.78800
O875        O  0.78411136  0.73565358  0.67222187    -0.93200
O876        O  0.84518908  0.80940424  0.53269073    -0.41000
O877        O  0.80846128  0.78402991  0.61001129    -0.77600
O878        O  0.80059301  0.78715676  0.55987226    -0.96300
O879        O  0.76165313  0.75431405  0.56368110    -0.89600
O880        O  0.77047319  0.75042608  0.61926197    -0.92500
C881        C  0.85631669  0.76821495  0.55064234     1.01300
C882        C  0.81111056  0.71709205  0.62717266     1.14200
C883        C  0.78937295  0.72461582  0.49739920     1.05000
O884        O  0.80280730  0.78073666  0.48832279    -0.94600
O885        O  0.77670294  0.78762612  0.51951613    -0.90400
O886        O  0.76957584  0.79596571  0.56049446    -0.83500
C887        C  0.77146925  0.79754613  0.53446543     1.11600
O888        O  0.74611534  0.69130710  0.59122394    -0.96600
Zr889      Zr  0.75439959  0.72522501  0.58711534     1.88900
O890        O  0.74207364  0.76566968  0.60015292    -0.73200
O891        O  0.75343301  0.74713869  0.50291312    -0.52500
O892        O  0.73163941  0.70489585  0.55200857    -0.97200
O893        O  0.73613284  0.71036327  0.62876389    -0.54400
O894        O  0.72926034  0.73404778  0.58760663    -0.73800
C895        C  0.72770013  0.74889613  0.59377569     0.98600
O896        O  0.78830147  0.81325216  0.60887279    -0.62600
O897        O  0.83217253  0.77215309  0.65612660    -0.57400
O898        O  0.77598905  0.78332134  0.64568538    -0.94100
O899        O  0.79697369  0.77475144  0.66405547    -0.92500
O900        O  0.85456097  0.80584784  0.60977988    -0.92800
O901        O  0.84228416  0.82454394  0.57920057    -0.91600
C902        C  0.78544672  0.78156496  0.66579648     1.17400
H903        H  0.83552226  0.76109527  0.60280336     0.33400
H904        H  0.80403232  0.79961834  0.55196654     0.44200
H905        H  0.76227325  0.74808431  0.63493070     0.37700
H906        H  0.76875888  0.72034595  0.53861727     0.34200
H907        H  0.85933976  0.81673344  0.53640305     0.26000
H908        H  0.75687032  0.75303245  0.48452006     0.32000
H909        H  0.72649675  0.71290425  0.54406597     0.37900
H910        H  0.86286480  0.79981746  0.60935151     0.32300
H911        H  0.82860644  0.77073061  0.67563548     0.31200
H912        H  0.79370963  0.74118994  0.68719051     0.32900
H913        H  0.73049405  0.71847109  0.63439292     0.31800
H914        H  0.83211695  0.82496237  0.59033220     0.35800
H915        H  0.79906785  0.81670213  0.62189574     0.28600
H916        H  0.81928338  0.70982034  0.54074757     0.32800
H917        H  0.73183937  0.68376641  0.59376070     0.35700
H918        H  0.83855967  0.76426181  0.65383358     0.28300
H919        H  0.79489161  0.82106833  0.59248956     0.41100
H920        H  0.81206537  0.79364110  0.49598843     0.31200
H921        H  0.84367296  0.79986000  0.51859505     0.38800
H922        H  0.74608804  0.71277564  0.64272550     0.30700
H923        H  0.74969749  0.73334945  0.50014148     0.30700
H924        H  0.79799133  0.69619946  0.55141807     0.31000
Zr925      Zr  0.71272163  0.81766485  0.95371835     2.17500
O926        O  0.68044191  0.81336359  0.96112304    -0.51400
O927        O  0.72829727  0.85230191  0.96345098    -0.74600
O928        O  0.70493037  0.81507695  0.00188496    -0.81400
O929        O  0.70163988  0.81337426  0.87744742    -0.83100
O930        O  0.72211065  0.80304611  0.02367721    -0.78700
O931        O  0.69394537  0.82215418  0.91742220    -0.90400
O932        O  0.75958241  0.86622769  0.94897027    -0.76300
O933        O  0.74423846  0.82809149  0.97233994    -0.85800
O934        O  0.73491003  0.83065082  0.91679843    -0.85500
O935        O  0.71114508  0.78891173  0.97301591    -0.72300
O936        O  0.70241439  0.79113605  0.92253050    -0.84400
Zr937      Zr  0.75519959  0.78561397  0.92226600     2.26400
Zr938      Zr  0.74321812  0.79959126  0.99089118     2.06300
Zr939      Zr  0.72533709  0.80401280  0.88630526     2.10000
Zr940      Zr  0.76614428  0.84062230  0.93502650     1.78800
O941        O  0.69971659  0.78181617  0.85571762    -0.93200
O942        O  0.78988476  0.85874466  0.97044351    -0.41000
O943        O  0.75725764  0.81454703  0.90312950    -0.77600
O944        O  0.76567886  0.81244250  0.95360213    -0.96300
O945        O  0.73326368  0.77328445  0.95968971    -0.89600
O946        O  0.72371086  0.77542579  0.90464925    -0.92500
C947        C  0.74523517  0.86709138  0.95944944     1.01300
C948        C  0.69229977  0.81950740  0.89147289     1.14200
C949        C  0.70923604  0.80836476  0.02291765     1.05000
O950        O  0.76514638  0.82290680  0.02425772    -0.94600
O951        O  0.76971603  0.79247815  0.99757669    -0.90400
O952        O  0.77398310  0.78080945  0.95741347    -0.83500
C953        C  0.77791608  0.78529404  0.98264275     1.11600
O954        O  0.66753313  0.75256666  0.94840162    -0.96600
Zr955      Zr  0.70182705  0.76304649  0.94168652     1.88900
O956        O  0.74109656  0.75011865  0.92336176    -0.73200
O957        O  0.73211733  0.77241588  0.02256257    -0.52500
O958        O  0.68908035  0.74452610  0.98370347    -0.97200
O959        O  0.68142969  0.74253419  0.90467030    -0.54400
O960        O  0.71042401  0.73787375  0.93988791    -0.73800
C961        C  0.72484993  0.73606234  0.93221190     0.98600
O962        O  0.78779410  0.79532811  0.90579534    -0.62600
O963        O  0.74108430  0.83003613  0.85280180    -0.57400
O964        O  0.75652443  0.78075336  0.87311855    -0.94100
O965        O  0.73823902  0.79194884  0.85272709    -0.92500
O966        O  0.77505217  0.86049015  0.89393198    -0.92800
O967        O  0.80007988  0.85313604  0.92283059    -0.91600
C968        C  0.74890444  0.78413524  0.85212972     1.17400
H969        H  0.73444506  0.84137882  0.90819060     0.33400
H970        H  0.77877049  0.81669315  0.95962733     0.44200
H971        H  0.72016187  0.76551491  0.89098334     0.37700
H972        H  0.70117915  0.78316339  0.98674788     0.34200
H973        H  0.79379153  0.87255199  0.96721170     0.26000
H974        H  0.73645274  0.77852549  0.04066809     0.32000
H975        H  0.68441099  0.73081621  0.97867037     0.37900
H976        H  0.77859060  0.87368093  0.90029471     0.32300
H977        H  0.73478405  0.82398728  0.83531667     0.31200
H978        H  0.70281243  0.78864374  0.83795627     0.32900
H979        H  0.68910029  0.73749320  0.89549737     0.31800
H980        H  0.80051479  0.84167267  0.91582806     0.35800
H981        H  0.79035326  0.80500605  0.89127152     0.28600
H982        H  0.68228293  0.82371753  0.97400619     0.32800
H983        H  0.66072515  0.73817494  0.94931328     0.35700
H984        H  0.73639048  0.83920947  0.85684796     0.28300
H985        H  0.79668639  0.80318357  0.92062978     0.41100
H986        H  0.75943712  0.81707838  0.04214094     0.31200
H987        H  0.78224670  0.85528428  0.98750701     0.38800
H988        H  0.68094813  0.75170952  0.89141908     0.30700
H989        H  0.71779384  0.76645238  0.02294058     0.30700
H990        H  0.67321771  0.80105244  0.97149111     0.31000
Zr991      Zr  0.59683041  0.76179055  0.21989146     2.17500
O992        O  0.62848404  0.79020179  0.21024498    -0.51400
O993        O  0.58370713  0.78212593  0.20360980    -0.74600
O994        O  0.60779005  0.76250818  0.17334948    -0.81400
O995        O  0.60511613  0.77104500  0.29549800    -0.83100
O996        O  0.59138882  0.73223490  0.15485116    -0.78700
O997        O  0.61770582  0.78496779  0.25458668    -0.90400
O998        O  0.55170641  0.76717969  0.21484663    -0.76300
O999        O  0.56687731  0.74009775  0.19807701    -0.85800
O1000       O  0.57182647  0.75635892  0.25155160    -0.85500
O1001       O  0.59868804  0.73298588  0.21009194    -0.72300
O1002       O  0.60229628  0.74709897  0.25923046    -0.84400
Zr1003     Zr  0.54873925  0.68976460  0.25926381     2.26400
Zr1004     Zr  0.56806784  0.71102352  0.18889439     2.06300
Zr1005     Zr  0.57626884  0.74039147  0.28968412     2.10000
Zr1006     Zr  0.54209792  0.73431929  0.23014000     1.78800
O1007       O  0.59113623  0.74713526  0.33470910    -0.93200
O1008       O  0.52466256  0.73013473  0.18761070    -0.41000
O1009       O  0.54612547  0.71821112  0.26908883    -0.77600
O1010       O  0.54268129  0.70497046  0.22060994    -0.96300
O1011       O  0.57394254  0.69638509  0.22760954    -0.89600
O1012       O  0.57851597  0.71194721  0.28094125    -0.92500
C1013       C  0.56725242  0.78152181  0.20496664     1.01300
C1014       C  0.61775865  0.78482365  0.28075956     1.14200
C1015       C  0.60438576  0.75035914  0.15403266     1.05000
O1016       O  0.55003848  0.71116609  0.14886830    -0.94600
O1017       O  0.54085667  0.67783638  0.18336282    -0.90400
O1018       O  0.53059474  0.66453775  0.22550388    -0.83500
C1019       C  0.52975153  0.66372666  0.19934600     1.11600
O1020       O  0.63850990  0.73986681  0.24407511    -0.96600
Zr1021     Zr  0.60360159  0.71835236  0.24955921     1.88900
O1022       O  0.56174425  0.66751061  0.26480177    -0.73200
O1023       O  0.58062732  0.69183061  0.16755798    -0.52500
O1024       O  0.61753792  0.70604450  0.21639941    -0.97200
O1025       O  0.62118639  0.72395978  0.29242219    -0.54400
O1026       O  0.59474344  0.68582074  0.26360095    -0.73800
C1027       C  0.57890313  0.66959995  0.26609458     0.98600
O1028       O  0.51529109  0.66833984  0.27425556    -0.62600
O1029       O  0.55861982  0.75620809  0.30592963    -0.57400
O1030       O  0.54451107  0.68658216  0.30895815    -0.94100
O1031       O  0.55894351  0.71748814  0.32516116    -0.92500
O1032       O  0.52822093  0.74601429  0.26429137    -0.92800
O1033       O  0.50709134  0.71328843  0.23492904    -0.91600
C1034       C  0.54927773  0.69905968  0.32834866     1.17400
H1035       H  0.57247071  0.76838218  0.25687084     0.33400
H1036       H  0.53008013  0.69621432  0.21293623     0.44200
H1037       H  0.58065246  0.70659715  0.29739904     0.37700
H1038       H  0.60955200  0.73587044  0.19839812     0.34200
H1039       H  0.51633865  0.73593252  0.19098701     0.26000
H1040       H  0.57442696  0.68848269  0.14938234     0.32000
H1041       H  0.60627993  0.69415379  0.20899230     0.37900
H1042       H  0.52096524  0.75098682  0.25375589     0.32300
H1043       H  0.54990031  0.74746668  0.32033877     0.31200
H1044       H  0.58624527  0.75487506  0.34408891     0.32900
H1045       H  0.61564361  0.71103532  0.30124902     0.31800
H1046       H  0.50561294  0.70264552  0.24706901     0.35800
H1047       H  0.51226049  0.67642891  0.28636253     0.28600
H1048       H  0.62670115  0.79637952  0.19378729     0.32800
H1049       H  0.64454026  0.73214692  0.25002269     0.35700
H1050       H  0.56845020  0.76786244  0.31581114     0.28300
H1051       H  0.50709975  0.66637489  0.25804534     0.41100
H1052       H  0.53670000  0.70663350  0.15559991     0.31200
H1053       H  0.53465062  0.73924635  0.17468697     0.38800
H1054       H  0.61671560  0.73122688  0.30383807     0.30700
H1055       H  0.59450534  0.70114425  0.16381157     0.30700
H1056       H  0.63692667  0.78498690  0.20441785     0.31000
Zr1057     Zr  0.51497321  0.58555300  0.61874133     2.17500
O1058       O  0.51492747  0.55523329  0.62768710    -0.51400
O1059       O  0.48100413  0.56525293  0.63270959    -0.74600
O1060       O  0.52610669  0.58420220  0.66438106    -0.81400
O1061       O  0.51063955  0.57535758  0.54268366    -0.83100
O1062       O  0.53627407  0.61296525  0.68615996    -0.78700
O1063       O  0.51422814  0.56368374  0.58319233    -0.90400
O1064       O  0.46462949  0.58107521  0.62219160    -0.76300
O1065       O  0.50590091  0.60658367  0.64084946    -0.85800
O1066       O  0.49631935  0.59204177  0.58671095    -0.85500
O1067       O  0.54534048  0.61411023  0.63080441    -0.72300
O1068       O  0.53619730  0.60061922  0.58070571    -0.84400
Zr1069     Zr  0.54020187  0.65820386  0.58221430     2.26400
Zr1070     Zr  0.53580142  0.63530706  0.65221277     2.06300
Zr1071     Zr  0.51775570  0.60813308  0.54974193     2.10000
Zr1072     Zr  0.48829833  0.61390869  0.60811872     1.78800
O1073       O  0.53324703  0.60454301  0.50915905    -0.93200
O1074       O  0.47477239  0.61893831  0.64973219    -0.41000
O1075       O  0.50955861  0.63011942  0.57051218    -0.77600
O1076       O  0.51800269  0.64283208  0.61968437    -0.96300
O1077       O  0.55759225  0.65051727  0.61483718    -0.89600
O1078       O  0.54819645  0.63636048  0.56031616    -0.92500
C1079       C  0.46537113  0.56626264  0.63114794     1.01300
C1080       C  0.51161656  0.56250980  0.55729782     1.14200
C1081       C  0.53296353  0.59538077  0.68515620     1.05000
O1082       O  0.51351909  0.63384067  0.68730828    -0.94600
O1083       O  0.54348804  0.66896582  0.65813332    -0.90400
O1084       O  0.54861624  0.68334318  0.61641893    -0.83500
C1085       C  0.54788266  0.68364678  0.64253264     1.11600
O1086       O  0.57682596  0.60545009  0.59756981    -0.96600
Zr1087     Zr  0.56596181  0.62913690  0.59257479     1.88900
O1088       O  0.57516985  0.68022429  0.57597015    -0.73200
O1089       O  0.56457253  0.65377457  0.68033064    -0.52500
O1090       O  0.59135631  0.63711178  0.62632821    -0.97200
O1091       O  0.57977348  0.62603755  0.54980747    -0.54400
O1092       O  0.59025781  0.66266743  0.58366765    -0.73800
C1093       C  0.59041023  0.67856256  0.57834503     0.98600
O1094       O  0.52851315  0.68040856  0.56952349    -0.62600
O1095       O  0.48621169  0.59400559  0.52726514    -0.57400
O1096       O  0.53824930  0.66211232  0.53289101    -0.94100
O1097       O  0.52091867  0.63135874  0.51636365    -0.92500
O1098       O  0.46359799  0.60408786  0.57281289    -0.92800
O1099       O  0.47397948  0.63455889  0.60160015    -0.91600
C1100       C  0.52956612  0.64979228  0.51359732     1.17400
H1101       H  0.48498762  0.58027643  0.58058341     0.33400
H1102       H  0.51436908  0.65174010  0.62737146     0.44200
H1103       H  0.55586991  0.64211596  0.54411466     0.37700
H1104       H  0.55323237  0.61123317  0.64273786     0.34200
H1105       H  0.46056577  0.61223594  0.64651423     0.26000
H1106       H  0.55959152  0.65182904  0.69921512     0.32000
H1107       H  0.59424382  0.64985844  0.63377182     0.37900
H1108       H  0.45258813  0.59153952  0.57908207     0.32300
H1109       H  0.48250220  0.60418226  0.52840953     0.31200
H1110       H  0.52355743  0.60118722  0.49444261     0.32900
H1111       H  0.58592158  0.63910128  0.54129485     0.31800
H1112       H  0.48446386  0.64784900  0.60620667     0.35800
H1113       H  0.51740879  0.67289071  0.55710308     0.28600
H1114       H  0.50627786  0.54922877  0.64356986     0.32800
H1115       H  0.59011820  0.61170883  0.58984866     0.35700
H1116       H  0.48905757  0.59365443  0.50773376     0.28300
H1117       H  0.52230211  0.68186890  0.58610949     0.41100
H1118       H  0.51929010  0.63278816  0.70465156     0.31200
H1119       H  0.47642979  0.61079426  0.66358150     0.38800
H1120       H  0.56840968  0.61784970  0.53813762     0.30700
H1121       H  0.57169189  0.64650976  0.67938913     0.30700
H1122       H  0.52814382  0.55905223  0.63432591     0.31000
Zr1123     Zr  0.56735303  0.52167054  0.89113669     2.17500
O1124       O  0.53525462  0.51672939  0.87966852    -0.51400
O1125       O  0.54903282  0.48780676  0.87664998    -0.74600
O1126       O  0.56646507  0.53382699  0.84609672    -0.81400
O1127       O  0.55611173  0.51784407  0.96676325    -0.83100
O1128       O  0.59464391  0.54193938  0.82387367    -0.78700
O1129       O  0.54484357  0.52090564  0.92565566    -0.90400
O1130       O  0.56464656  0.47157012  0.88893785    -0.76300
O1131       O  0.58950371  0.51372971  0.87006274    -0.85800
O1132       O  0.57402481  0.50350693  0.92374238    -0.85500
O1133       O  0.59533774  0.55266938  0.87944413    -0.72300
O1134       O  0.58116386  0.54294395  0.92934883    -0.84400
Zr1135     Zr  0.63938362  0.54878544  0.92976626     2.26400
Zr1136     Zr  0.61759235  0.54426906  0.85888713     2.06300
Zr1137     Zr  0.58889631  0.52497098  0.96103703     2.10000
Zr1138     Zr  0.59689100  0.49646094  0.90333517     1.78800
O1139       O  0.58434937  0.54015480  0.00123849    -0.93200
O1140       O  0.60117534  0.48228459  0.86187623    -0.41000
O1141       O  0.61187518  0.51766354  0.94138939    -0.77600
O1142       O  0.62521638  0.52674719  0.89190193    -0.96300
O1143       O  0.63180730  0.56594664  0.89655160    -0.89600
O1144       O  0.61656461  0.55577652  0.95053233    -0.92500
C1145       C  0.55013146  0.47226209  0.87872459     1.01300
C1146       C  0.54342618  0.51860397  0.95160850     1.14200
C1147       C  0.57748625  0.53971771  0.82506622     1.05000
O1148       O  0.62023529  0.52619750  0.82078592    -0.94600
O1149       O  0.65165255  0.55306691  0.85387872    -0.90400
O1150       O  0.66523661  0.55865876  0.89615878    -0.83500
C1151       C  0.66612830  0.55801578  0.87007701     1.11600
O1152       O  0.58527169  0.58333411  0.91075638    -0.96600
Zr1153     Zr  0.60934771  0.57322857  0.91792767     1.88900
O1154       O  0.66027430  0.58353583  0.93883646    -0.73200
O1155       O  0.63288515  0.57500495  0.83405446    -0.52500
O1156       O  0.61999140  0.59972601  0.88512358    -0.97200
O1157       O  0.60390934  0.58593007  0.96011365    -0.54400
O1158       O  0.64175471  0.59763724  0.93168575    -0.73800
C1159       C  0.65772834  0.59830771  0.93805368     0.98600
O1160       O  0.66174744  0.53756523  0.94316318    -0.62600
O1161       O  0.57403086  0.49285230  0.98213910    -0.57400
O1162       O  0.64233767  0.54749708  0.97945467    -0.94100
O1163       O  0.61165039  0.52974727  0.99632538    -0.92500
O1164       O  0.58795159  0.47269331  0.93994999    -0.92800
O1165       O  0.62018725  0.48516557  0.90803106    -0.91600
C1166       C  0.63010983  0.53921392  0.99906705     1.17400
H1167       H  0.56231962  0.49192385  0.92952961     0.33400
H1168       H  0.63455927  0.52354695  0.88460457     0.44200
H1169       H  0.62184496  0.56353984  0.96675604     0.37700
H1170       H  0.59250948  0.56053058  0.86738254     0.34200
H1171       H  0.59476034  0.46814375  0.86565264     0.26000
H1172       H  0.63459887  0.57150831  0.81534570     0.32000
H1173       H  0.63209836  0.60114303  0.87723619     0.37900
H1174       H  0.57369300  0.46418075  0.93841249     0.32300
H1175       H  0.58506946  0.49158612  0.98903773     0.31200
H1176       H  0.57874454  0.52970170  0.01513315     0.32900
H1177       H  0.61646867  0.59193221  0.96994535     0.31800
H1178       H  0.62761061  0.49160387  0.92471458     0.35800
H1179       H  0.65410146  0.52637224  0.95545400     0.28600
H1180       H  0.53122379  0.50877669  0.86289579     0.32800
H1181       H  0.59177601  0.59722878  0.91598902     0.35700
H1182       H  0.56759576  0.49398737  0.99870853     0.28300
H1183       H  0.66352471  0.53153357  0.92662368     0.41100
H1184       H  0.62121094  0.51540060  0.82931625     0.31200
H1185       H  0.59264306  0.48354535  0.84828923     0.38800
H1186       H  0.59522574  0.57423232  0.97097316     0.30700
H1187       H  0.62266548  0.57862718  0.83234253     0.30700
H1188       H  0.53732838  0.52961942  0.87398944     0.31000
Zr1189     Zr  0.47868214  0.42814269  0.38435584     2.17500
O1190       O  0.48023568  0.45819147  0.36880665    -0.51400
O1191       O  0.51221857  0.44464274  0.36853341    -0.74600
O1192       O  0.48912319  0.45318155  0.41936717    -0.81400
O1193       O  0.44511030  0.39971803  0.32621641    -0.83100
O1194       O  0.49115257  0.44060645  0.45997749    -0.78700
O1195       O  0.46397338  0.43056229  0.34188584    -0.90400
O1196       O  0.52627731  0.42804720  0.38551988    -0.76300
O1197       O  0.49588563  0.41919298  0.41546261    -0.85800
O1198       O  0.48331807  0.40422650  0.36139344    -0.85500
O1199       O  0.45803555  0.41588455  0.42386476    -0.72300
O1200       O  0.44677439  0.40150399  0.37530434    -0.84400
Zr1201     Zr  0.44699636  0.35529561  0.42384918     2.26400
Zr1202     Zr  0.47521684  0.40592760  0.45415130     2.06300
Zr1203     Zr  0.45127850  0.37736630  0.35299996     2.10000
Zr1204     Zr  0.49982336  0.39487522  0.39336938     1.78800
O1205       O  0.42273076  0.36035790  0.32406091    -0.93200
O1206       O  0.52488780  0.39861487  0.42542778    -0.41000
O1207       O  0.46794663  0.36792619  0.38466099    -0.77600
O1208       O  0.47961695  0.38128969  0.43310993    -0.96300
O1209       O  0.44315694  0.37978438  0.44551235    -0.89600
O1210       O  0.43041545  0.36445599  0.39176706    -0.92500
C1211       C  0.52716957  0.44314476  0.37441930     1.01300
C1212       C  0.45141724  0.41813121  0.32528324     1.14200
C1213       C  0.49331494  0.45467679  0.44480157     1.05000
O1214       O  0.50550586  0.41526748  0.47803706    -0.94600
O1215       O  0.46840952  0.38286814  0.49035203    -0.90400
O1216       O  0.44796838  0.35267936  0.47355209    -0.83500
C1217       C  0.45714601  0.36451303  0.49315259     1.11600
O1218       O  0.41716828  0.41388217  0.41294752    -0.96600
Zr1219     Zr  0.42636107  0.38879497  0.41422964     1.88900
O1220       O  0.41163948  0.33605726  0.43104134    -0.73200
O1221       O  0.45937702  0.41285406  0.49136842    -0.52500
O1222       O  0.41575260  0.39316032  0.45885544    -0.97200
O1223       O  0.40165375  0.38240627  0.37992875    -0.54400
O1224       O  0.40021774  0.35719833  0.42820246    -0.73800
C1225       C  0.39794031  0.34023200  0.43236830     0.98600
O1226       O  0.45208996  0.32955589  0.44221011    -0.62600
O1227       O  0.47120131  0.37881914  0.31440914    -0.57400
O1228       O  0.44144340  0.33081857  0.39005819    -0.94100
O1229       O  0.44070527  0.34270963  0.34813437    -0.92500
O1230       O  0.51207720  0.39213985  0.34916598    -0.92800
O1231       O  0.50842816  0.36944550  0.39179813    -0.91600
C1232       C  0.43915070  0.32913774  0.36416990     1.17400
H1233       H  0.49063291  0.40944879  0.34482120     0.33400
H1234       H  0.48587058  0.37676364  0.44561966     0.44200
H1235       H  0.41822115  0.35358484  0.38581843     0.37700
H1236       H  0.45618921  0.42591237  0.43212327     0.34200
H1237       H  0.53687025  0.40368584  0.41435028     0.26000
H1238       H  0.47005142  0.42157765  0.50371094     0.32000
H1239       H  0.40137012  0.38611324  0.45798332     0.37900
H1240       H  0.52586690  0.40261913  0.34894220     0.32300
H1241       H  0.46347777  0.36615284  0.30512866     0.31200
H1242       H  0.42791881  0.36269425  0.30526961     0.32900
H1243       H  0.39811210  0.36947922  0.37245028     0.31800
H1244       H  0.49813859  0.35861219  0.40252232     0.35800
H1245       H  0.44074002  0.31708757  0.43644723     0.28600
H1246       H  0.49364171  0.46879670  0.37261268     0.32800
H1247       H  0.40329971  0.40728088  0.41834155     0.35700
H1248       H  0.47083249  0.38839882  0.30182328     0.28300
H1249       H  0.46324027  0.33051362  0.43189711     0.41100
H1250       H  0.50426743  0.42070643  0.49553344     0.31200
H1251       H  0.52709667  0.40970880  0.43702958     0.38800
H1252       H  0.40875408  0.39160916  0.36492177     0.30700
H1253       H  0.45466191  0.42118828  0.48329274     0.30700
H1254       H  0.47182391  0.46048965  0.38132478     0.31000
Zr1255     Zr  0.40981851  0.49045148  0.12360320     2.17500
O1256       O  0.43908456  0.49130051  0.14085642    -0.51400
O1257       O  0.42590947  0.52395993  0.13870858    -0.74600
O1258       O  0.43515521  0.49983946  0.08887112    -0.81400
O1259       O  0.38128098  0.46233867  0.18684734    -0.83100
O1260       O  0.42244368  0.50088326  0.04792361    -0.78700
O1261       O  0.41185353  0.47991744  0.16943973    -0.90400
O1262       O  0.40847874  0.53811678  0.12547869    -0.76300
O1263       O  0.40131972  0.50630323  0.08964985    -0.85800
O1264       O  0.38586809  0.49624381  0.14388125    -0.85500
O1265       O  0.39781991  0.46790953  0.08624450    -0.72300
O1266       O  0.38322061  0.45916728  0.13593042    -0.84400
Zr1267     Zr  0.33777908  0.45765138  0.08346287     2.26400
Zr1268     Zr  0.38798833  0.48353806  0.05300278     2.06300
Zr1269     Zr  0.35890998  0.46492735  0.15520039     2.10000
Zr1270     Zr  0.37723427  0.51172535  0.10947964     1.78800
O1271       O  0.34105595  0.43549025  0.18238931    -0.93200
O1272       O  0.38710997  0.53642577  0.07400956    -0.41000
O1273       O  0.35012554  0.48037119  0.12069030    -0.77600
O1274       O  0.36383388  0.48964599  0.07161181    -0.96300
O1275       O  0.36190841  0.45203839  0.06432182    -0.89600
O1276       O  0.34652356  0.44246931  0.11833613    -0.92500
C1277       C  0.42341077  0.53864276  0.13646176     1.01300
C1278       C  0.39979564  0.46939442  0.18804194     1.14200
C1279       C  0.43653117  0.50342074  0.06318048     1.05000
O1280       O  0.39657559  0.51094014  0.02252298    -0.94600
O1281       O  0.36517312  0.47452629  0.01606069    -0.90400
O1282       O  0.33492162  0.45587256  0.03370802    -0.83500
C1283       C  0.34674198  0.46375071  0.01362399     1.11600
O1284       O  0.39505914  0.42824190  0.11205874    -0.96600
Zr1285     Zr  0.37076307  0.43696520  0.09887449     1.88900
O1286       O  0.31877800  0.42238644  0.07792871    -0.73200
O1287       O  0.39591042  0.46558755  0.02012774    -0.52500
O1288       O  0.38025996  0.42438487  0.06027006    -0.97200
O1289       O  0.35941550  0.41159113  0.13365741    -0.54400
O1290       O  0.34030171  0.41143331  0.08068792    -0.73800
C1291       C  0.32326357  0.40894344  0.07655774     0.98600
O1292       O  0.31367999  0.46564414  0.06644955    -0.62600
O1293       O  0.35891943  0.48508298  0.19256041    -0.57400
O1294       O  0.31141821  0.44843316  0.11545005    -0.94100
O1295       O  0.32464986  0.45633121  0.15788780    -0.92500
O1296       O  0.37067788  0.52520001  0.14989597    -0.92800
O1297       O  0.35185374  0.52007782  0.10326566    -0.91600
C1298       C  0.31025037  0.45022126  0.14120154     1.17400
H1299       H  0.39080409  0.50419100  0.15992261     0.33400
H1300       H  0.35945969  0.49532307  0.05788326     0.44200
H1301       H  0.33550613  0.43048580  0.12459441     0.37700
H1302       H  0.40786435  0.46574076  0.07909852     0.34200
H1303       H  0.39499118  0.54898852  0.08347812     0.26000
H1304       H  0.40212237  0.47473519  0.00475880     0.32000
H1305       H  0.37599578  0.42869459  0.04405691     0.37900
H1306       H  0.37776990  0.53945758  0.14689755     0.32300
H1307       H  0.34560329  0.47792119  0.20017422     0.31200
H1308       H  0.34019353  0.44018527  0.20068936     0.32900
H1309       H  0.34548099  0.40270060  0.12971420     0.31800
H1310       H  0.33963077  0.50799394  0.10783837     0.35800
H1311       H  0.31214610  0.47326550  0.08116182     0.28600
H1312       H  0.44988161  0.50466846  0.13728739     0.32800
H1313       H  0.38962416  0.41446845  0.10666781     0.35700
H1314       H  0.36718918  0.48403856  0.20679297     0.28300
H1315       H  0.32028276  0.47533592  0.05177971     0.41100
H1316       H  0.39988323  0.50712752  0.00503489     0.31200
H1317       H  0.39662808  0.53487926  0.06288159     0.38800
H1318       H  0.35944968  0.41820009  0.15072583     0.30700
H1319       H  0.40655974  0.46429601  0.02849617     0.30700
H1320       H  0.44150336  0.48282525  0.12866020     0.31000
Zr1321     Zr  0.17325680  0.27705156  0.45243032     2.17500
O1322       O  0.17115396  0.30490031  0.46901263    -0.51400
O1323       O  0.13851941  0.25843662  0.46071173    -0.74600
O1324       O  0.16564871  0.29384058  0.41639619    -0.81400
O1325       O  0.19833964  0.27583386  0.51774652    -0.83100
O1326       O  0.17130052  0.28448312  0.37547254    -0.78700
O1327       O  0.18050149  0.28828562  0.49944726    -0.90400
O1328       O  0.12605702  0.22753251  0.44522874    -0.76300
O1329       O  0.16132798  0.25468480  0.41574012    -0.85800
O1330       O  0.16531282  0.24609341  0.47112916    -0.85500
O1331       O  0.19962873  0.28977739  0.42030610    -0.72300
O1332       O  0.20308164  0.28066900  0.46982067    -0.84400
Zr1333     Zr  0.20991439  0.23949287  0.41749295     2.26400
Zr1334     Zr  0.18760549  0.26668540  0.38412450     2.06300
Zr1335     Zr  0.19523139  0.24969166  0.48801037     2.10000
Zr1336     Zr  0.15410311  0.22397188  0.43388683     1.78800
O1337       O  0.21915640  0.25690149  0.52373143    -0.93200
O1338       O  0.13205751  0.20973450  0.39548261    -0.41000
O1339       O  0.18403375  0.22757148  0.45055358    -0.77600
O1340       O  0.17959423  0.23516488  0.40031813    -0.96300
O1341       O  0.21762595  0.27057764  0.40044403    -0.89600
O1342       O  0.22105068  0.26104405  0.45563134    -0.92500
C1343       C  0.12425326  0.24138153  0.45566936     1.01300
C1344       C  0.19115954  0.28724158  0.51833046     1.14200
C1345       C  0.16550722  0.29379749  0.39020773     1.05000
O1346       O  0.16286141  0.24822858  0.35012785    -0.94600
O1347       O  0.20223638  0.25751137  0.34921945    -0.90400
O1348       O  0.21340969  0.23859620  0.36747074    -0.83500
C1349       C  0.21004361  0.24690239  0.34716731     1.11600
O1350       O  0.23774791  0.32592051  0.44552199    -0.96600
Zr1351     Zr  0.22900146  0.29214358  0.43795307     1.88900
O1352       O  0.24552982  0.25570492  0.41753847    -0.73200
O1353       O  0.20655760  0.29497099  0.35509836    -0.52500
O1354       O  0.24697740  0.31315363  0.39982201    -0.97200
O1355       O  0.24783546  0.30562149  0.47946540    -0.54400
O1356       O  0.25600409  0.28630244  0.43329336    -0.73800
C1357       C  0.25893243  0.27252692  0.42566439     0.98600
O1358       O  0.20330736  0.20811073  0.39962295    -0.62600
O1359       O  0.16979824  0.22892885  0.52007103    -0.57400
O1360       O  0.21469555  0.21997983  0.45168393    -0.94100
O1361       O  0.20296214  0.22350969  0.49226744    -0.92500
O1362       O  0.14042152  0.20178052  0.47240244    -0.92800
O1363       O  0.14706230  0.19107707  0.42350205    -0.91600
C1364       C  0.21016286  0.21559544  0.47684463     1.17400
H1365       H  0.15571629  0.24218634  0.48533896     0.33400
H1366       H  0.17522722  0.22609567  0.38532276     0.44200
H1367       H  0.23190803  0.26112935  0.46457284     0.37700
H1368       H  0.20242168  0.30239097  0.41380601     0.34200
H1369       H  0.11930343  0.20066270  0.40377139     0.26000
H1370       H  0.21986615  0.29686845  0.35519212     0.32000
H1371       H  0.25142399  0.30557133  0.38908312     0.37900
H1372       H  0.12644091  0.19773998  0.47244245     0.32300
H1373       H  0.17378561  0.21972258  0.52702887     0.31200
H1374       H  0.21165293  0.24820699  0.53899085     0.32900
H1375       H  0.26159125  0.31126820  0.47385895     0.31800
H1376       H  0.15867626  0.19061609  0.42983534     0.35800
H1377       H  0.21526760  0.20746418  0.40302341     0.28600
H1378       H  0.15798790  0.30231030  0.46398132     0.32800
H1379       H  0.25214163  0.33343496  0.44562191     0.35700
H1380       H  0.17156366  0.23749102  0.53571666     0.28300
H1381       H  0.19341352  0.19823317  0.41194842     0.41100
H1382       H  0.16705865  0.25663902  0.33373101     0.31200
H1383       H  0.13047551  0.22049229  0.38811462     0.38800
H1384       H  0.24515903  0.29413756  0.49063258     0.30700
H1385       H  0.20170791  0.29050669  0.33642183     0.30700
H1386       H  0.18020102  0.31609738  0.45758754     0.31000
Zr1387     Zr  0.23845070  0.40078802  0.71812152     2.17500
O1388       O  0.21116761  0.36981562  0.70314566    -0.51400
O1389       O  0.21820065  0.41448417  0.70537558    -0.74600
O1390       O  0.21472083  0.38297119  0.75409737    -0.81400
O1391       O  0.26594854  0.40501601  0.65254651    -0.83100
O1392       O  0.22897925  0.39414767  0.79522604    -0.78700
O1393       O  0.23612826  0.38819580  0.67236966    -0.90400
O1394       O  0.23280560  0.44595246  0.71912354    -0.76300
O1395       O  0.24560244  0.42417674  0.75287812    -0.85800
O1396       O  0.25833199  0.43188531  0.69729267    -0.85500
O1397       O  0.25438263  0.39268628  0.75332662    -0.72300
O1398       O  0.26692162  0.40066244  0.70221945    -0.84400
Zr1399     Zr  0.31127965  0.44731506  0.75274548     2.26400
Zr1400     Zr  0.26261960  0.41722728  0.78725240     2.06300
Zr1401     Zr  0.28711255  0.43203628  0.68245418     2.10000
Zr1402     Zr  0.26595306  0.45504160  0.73271713     1.78800
O1403       O  0.30363386  0.42692709  0.64435354    -0.93200
O1404       O  0.25371496  0.46596798  0.77012663    -0.41000
O1405       O  0.29506257  0.45548556  0.71781484    -0.77600
O1406       O  0.28315135  0.44869804  0.76808204    -0.96300
O1407       O  0.29066129  0.41624213  0.77236236    -0.89600
O1408       O  0.30351439  0.42427388  0.71689645    -0.92500
C1409       C  0.21851871  0.43066668  0.70862714     1.01300
C1410       C  0.24805234  0.39131649  0.65281895     1.14200
C1411       C  0.21435768  0.38329632  0.78023492     1.05000
O1412       O  0.24871231  0.43169192  0.81684424    -0.94600
O1413       O  0.28668622  0.43455082  0.82190018    -0.90400
O1414       O  0.31649949  0.45156523  0.80221950    -0.83500
C1415       C  0.30518768  0.44556031  0.82312815     1.11600
O1416       O  0.25962226  0.35904973  0.72907456    -0.96600
Zr1417     Zr  0.28308525  0.39322693  0.73696451     1.88900
O1418       O  0.33322398  0.43416766  0.75914073    -0.73200
O1419       O  0.26164580  0.39434490  0.82126576    -0.52500
O1420       O  0.28214539  0.37284148  0.77480051    -0.97200
O1421       O  0.29226750  0.37990345  0.69883760    -0.54400
O1422       O  0.31625835  0.40220942  0.74722746    -0.73800
C1423       C  0.33175311  0.41747107  0.75495786     0.98600
O1424       O  0.33301825  0.48121441  0.76533000    -0.62600
O1425       O  0.28130051  0.45296842  0.65211639    -0.57400
O1426       O  0.33601301  0.46457721  0.71833702    -0.94100
O1427       O  0.32117972  0.45735839  0.67690254    -0.92500
O1428       O  0.27131561  0.47710534  0.69488408    -0.92800
O1429       O  0.28628965  0.48962389  0.74209031    -0.91600
C1430       C  0.33615234  0.46651319  0.69236504     1.17400
H1431       H  0.25177311  0.43396635  0.68225762     0.33400
H1432       H  0.28691869  0.45850961  0.78196132     0.44200
H1433       H  0.31503877  0.42497097  0.70923880     0.37700
H1434       H  0.24574174  0.37992198  0.76075353     0.34200
H1435       H  0.24811735  0.47329468  0.76126557     0.26000
H1436       H  0.25380824  0.39507128  0.83638551     0.32000
H1437       H  0.28389067  0.38067717  0.79129266     0.37900
H1438       H  0.25867384  0.47153609  0.68533262     0.32300
H1439       H  0.29431033  0.46446743  0.64903558     0.31200
H1440       H  0.30148964  0.43353577  0.62871185     0.32900
H1441       H  0.30662703  0.38769519  0.69790363     0.31800
H1442       H  0.29806917  0.49078766  0.75081975     0.35800
H1443       H  0.33270234  0.48890769  0.74963097     0.28600
H1444       H  0.19924758  0.37020110  0.70790316     0.32800
H1445       H  0.24955671  0.35924499  0.71736162     0.35700
H1446       H  0.27778037  0.44607017  0.63445977     0.28300
H1447       H  0.32614026  0.48400736  0.77986259     0.41100
H1448       H  0.25067303  0.42831513  0.83554439     0.31200
H1449       H  0.24228492  0.45399546  0.77707342     0.38800
H1450       H  0.28778051  0.38383283  0.68246052     0.30700
H1451       H  0.25336566  0.38131789  0.81321264     0.30700
H1452       H  0.21112944  0.35977087  0.71520697     0.31000
Zr1453     Zr  0.26013770  0.18658079  0.05082814     2.17500
O1454       O  0.28509221  0.18054633  0.03204420    -0.51400
O1455       O  0.24226504  0.15243538  0.03810263    -0.74600
O1456       O  0.27836704  0.18056752  0.08630950    -0.81400
O1457       O  0.25639717  0.21038535  0.98436875    -0.83100
O1458       O  0.26312203  0.17845333  0.12616596    -0.78700
O1459       O  0.27519504  0.20093509  0.00742842    -0.90400
O1460       O  0.21146358  0.13897290  0.05425259    -0.76300
O1461       O  0.23668332  0.17242811  0.08613630    -0.85800
O1462       O  0.22958016  0.17914106  0.03117299    -0.85500
O1463       O  0.27171519  0.21103224  0.08573976    -0.72300
O1464       O  0.26353540  0.21686216  0.03583110    -0.84400
Zr1465     Zr  0.22143450  0.22114740  0.08889511     2.26400
Zr1466     Zr  0.24727795  0.19700387  0.12023625     2.06300
Zr1467     Zr  0.23281854  0.20957652  0.01716951     2.10000
Zr1468     Zr  0.20652043  0.16589294  0.06718961     1.78800
O1469       O  0.24281154  0.23513439  0.98299749    -0.93200
O1470       O  0.19172350  0.14237116  0.10403481    -0.41000
O1471       O  0.20988394  0.19654722  0.05376980    -0.77600
O1472       O  0.21630828  0.18979257  0.10285212    -0.96300
O1473       O  0.25190987  0.22791812  0.10679157    -0.89600
O1474       O  0.24380920  0.23380654  0.05173363    -0.92500
C1475       C  0.22535257  0.13780441  0.04276653     1.01300
C1476       C  0.27106470  0.20771950  0.98627997     1.14200
C1477       C  0.27555167  0.17671999  0.11189822     1.05000
O1478       O  0.23204101  0.17268648  0.15601640    -0.94600
O1479       O  0.23334741  0.20597752  0.15645813    -0.90400
O1480       O  0.22110053  0.22420066  0.13911049    -0.83500
C1481       C  0.22547128  0.21648931  0.15914799     1.11600
O1482       O  0.30822099  0.24968324  0.06389584    -0.96600
Zr1483     Zr  0.27438100  0.24100862  0.07031902     1.88900
O1484       O  0.23750938  0.25679149  0.09044706    -0.73200
O1485       O  0.27496164  0.21788684  0.14901064    -0.52500
O1486       O  0.29271489  0.25700180  0.11124458    -0.97200
O1487       O  0.28986648  0.26247500  0.03145224    -0.54400
O1488       O  0.26856982  0.26782894  0.07628418    -0.73800
C1489       C  0.25451301  0.27044704  0.08333380     0.98600
O1490       O  0.18933431  0.21322512  0.10550485    -0.62600
O1491       O  0.20949752  0.18580658  0.98545162    -0.57400
O1492       O  0.20394293  0.22930624  0.05584386    -0.94100
O1493       O  0.20925053  0.22089462  0.01373804    -0.92500
O1494       O  0.18600007  0.15469982  0.02680647    -0.92800
O1495       O  0.17220614  0.15365562  0.07636613    -0.91600
C1496       C  0.20116638  0.22744231  0.03002300     1.17400
H1497       H  0.22617243  0.17038064  0.01595496     0.33400
H1498       H  0.20673163  0.18464207  0.11718426     0.44200
H1499       H  0.24418582  0.24507124  0.04360037     0.37700
H1500       H  0.28422067  0.21384746  0.09267071     0.34200
H1501       H  0.18550495  0.12948253  0.09507889     0.26000
H1502       H  0.27093182  0.21241396  0.16755175     0.32000
H1503       H  0.29734987  0.27100660  0.10839496     0.37900
H1504       H  0.18722569  0.14365282  0.01991336     0.32300
H1505       H  0.20365907  0.19270046  0.97601348     0.31200
H1506       H  0.23441829  0.22861812  0.96706880     0.32900
H1507       H  0.27978569  0.26504585  0.02393173     0.31800
H1508       H  0.16999823  0.16444847  0.07106463     0.35800
H1509       H  0.18017182  0.20495534  0.09116781     0.28600
H1510       H  0.28249102  0.16791993  0.03976002     0.32800
H1511       H  0.31593597  0.26383758  0.06746028     0.35700
H1512       H  0.21755941  0.18430341  0.97138412     0.28300
H1513       H  0.18657563  0.20411797  0.12088757     0.41100
H1514       H  0.21789856  0.16745642  0.15370312     0.31200
H1515       H  0.20285127  0.14304074  0.11409365     0.38800
H1516       H  0.29118415  0.25416207  0.01760923     0.30700
H1517       H  0.28530255  0.21495811  0.14403820     0.30700
H1518       H  0.29747511  0.19035868  0.04049262     0.31000
Zr1519     Zr  0.38072345  0.24931933  0.78133633     2.17500
O1520       O  0.35256966  0.21954446  0.79804136    -0.51400
O1521       O  0.39521188  0.22909847  0.79049628    -0.74600
O1522       O  0.36120595  0.22706322  0.74454152    -0.81400
O1523       O  0.38851784  0.27431893  0.85123239    -0.83100
O1524       O  0.37387246  0.24176042  0.70407332    -0.78700
O1525       O  0.36759496  0.24784170  0.82645551    -0.90400
O1526       O  0.42650269  0.24528934  0.77581872    -0.76300
O1527       O  0.40348998  0.25809240  0.74526097    -0.85800
O1528       O  0.41218988  0.26914570  0.80110453    -0.85500
O1529       O  0.37136195  0.26608494  0.74926417    -0.72300
O1530       O  0.38074386  0.27728996  0.79987071    -0.84400
Zr1531     Zr  0.42595231  0.32369660  0.74985231     2.26400
Zr1532     Zr  0.39502350  0.27559272  0.71376119     2.06300
Zr1533     Zr  0.41240161  0.29731827  0.81894035     2.10000
Zr1534     Zr  0.43470998  0.27844857  0.76444432     1.78800
O1535       O  0.40471858  0.31372768  0.85445482    -0.93200
O1536       O  0.44632555  0.26729547  0.72652648    -0.41000
O1537       O  0.43510652  0.30676383  0.78226037    -0.77600
O1538       O  0.42693548  0.29606056  0.73150089    -0.96300
O1539       O  0.39449885  0.30336929  0.73124381    -0.89600
O1540       O  0.40368981  0.31448856  0.78699270    -0.92500
C1541       C  0.41164848  0.23024522  0.78580969     1.01300
C1542       C  0.37285592  0.25779798  0.84852561     1.14200
C1543       C  0.36213522  0.22706341  0.71839237     1.05000
O1544       O  0.41214570  0.26687122  0.68057239    -0.94600
O1545       O  0.40777648  0.30117500  0.68035161    -0.90400
O1546       O  0.42828510  0.33009931  0.70050480    -0.83500
C1547       C  0.41977208  0.31948042  0.67953996     1.11600
O1548       O  0.33770116  0.27280689  0.77643307    -0.96600
Zr1549     Zr  0.37227982  0.29452300  0.76785849     1.88900
O1550       O  0.41271588  0.34568093  0.74705668    -0.73200
O1551       O  0.36819905  0.26964250  0.68366272    -0.52500
O1552       O  0.35322151  0.29218540  0.72764479    -0.97200
O1553       O  0.35859064  0.30242677  0.80689444    -0.54400
O1554       O  0.38134819  0.32843857  0.76160397    -0.73800
C1555       C  0.39633956  0.34418786  0.75354075     0.98600
O1556       O  0.45920958  0.34616910  0.73524996    -0.62600
O1557       O  0.43447244  0.29269015  0.84848786    -0.57400
O1558       O  0.44452679  0.34715717  0.78542861    -0.94100
O1559       O  0.43878220  0.33079338  0.82563765    -0.92500
O1560       O  0.45667844  0.28321130  0.80206732    -0.92800
O1561       O  0.46852990  0.30052559  0.75233255    -0.91600
C1562       C  0.44754188  0.34631981  0.81101152     1.17400
H1563       H  0.41485007  0.26233446  0.81529646     0.33400
H1564       H  0.43635537  0.30036865  0.71696279     0.44200
H1565       H  0.40455631  0.32571880  0.79583747     0.37700
H1566       H  0.35845335  0.25759374  0.74225763     0.34200
H1567       H  0.45296442  0.26087281  0.73509568     0.26000
H1568       H  0.36834938  0.28218444  0.68279438     0.32000
H1569       H  0.35855787  0.30573391  0.72116380     0.37900
H1570       H  0.46206351  0.29697687  0.80746460     0.32300
H1571       H  0.43928824  0.30351107  0.86170421     0.31200
H1572       H  0.41242731  0.31384944  0.87038989     0.32900
H1573       H  0.36917963  0.31511705  0.81345412     0.31800
H1574       H  0.46960329  0.31349440  0.75131939     0.35800
H1575       H  0.46757166  0.34603071  0.75011428     0.28600
H1576       H  0.35323435  0.20862254  0.78943116     0.32800
H1577       H  0.33119469  0.28016196  0.77088843     0.35700
H1578       H  0.42598951  0.28092556  0.85936155     0.28300
H1579       H  0.46168578  0.33952036  0.72006508     0.41100
H1580       H  0.42476967  0.27887222  0.67751005     0.31200
H1581       H  0.43442262  0.25650224  0.71835687     0.38800
H1582       H  0.35731458  0.29305141  0.82122332     0.30700
H1583       H  0.37246244  0.26813164  0.66535672     0.30700
H1584       H  0.34108602  0.21934090  0.78976763     0.31000
Zr1585     Zr  0.50195019  0.94289430  0.11166379     2.17500
O1586       O  0.49838141  0.97049264  0.12536055    -0.51400
O1587       O  0.46733570  0.92569694  0.12196060    -0.74600
O1588       O  0.49545199  0.95891691  0.07349307    -0.81400
O1589       O  0.52727005  0.94292084  0.17848409    -0.83100
O1590       O  0.49643280  0.94468447  0.03394725    -0.78700
O1591       O  0.51224634  0.95728853  0.15695451    -0.90400
O1592       O  0.45404116  0.89399194  0.11002792    -0.76300
O1593       O  0.48834971  0.91850334  0.07763316    -0.85800
O1594       O  0.49434833  0.91301938  0.13372585    -0.85500
O1595       O  0.52666167  0.95287794  0.07711684    -0.72300
O1596       O  0.53221092  0.94706855  0.12806695    -0.84400
Zr1597     Zr  0.53697263  0.90288145  0.08052399     2.26400
Zr1598     Zr  0.51307517  0.92733844  0.04401408     2.06300
Zr1599     Zr  0.52478582  0.91696596  0.14936611     2.10000
Zr1600     Zr  0.48128405  0.88891036  0.09905484     1.78800
O1601       O  0.55044236  0.92757097  0.18336618    -0.93200
O1602       O  0.45820522  0.87591751  0.06145154    -0.41000
O1603       O  0.51179989  0.89278142  0.11457797    -0.77600
O1604       O  0.50580562  0.89719356  0.06449306    -0.96300
O1605       O  0.54381180  0.93260045  0.05940171    -0.89600
O1606       O  0.54942326  0.92676538  0.11559605    -0.92500
C1607       C  0.45270909  0.90857280  0.11857082     1.01300
C1608       C  0.52155216  0.95546427  0.17715928     1.14200
C1609       C  0.49316124  0.95638904  0.04760916     1.05000
O1610       O  0.48667310  0.90462172  0.01481556    -0.94600
O1611       O  0.52669911  0.91550820  0.01052491    -0.90400
O1612       O  0.54078449  0.90003763  0.03134629    -0.83500
C1613       C  0.53578405  0.90596619  0.00999093     1.11600
O1614       O  0.56529403  0.99066923  0.09583974    -0.96600
Zr1615     Zr  0.55662597  0.95654008  0.09396465     1.88900
O1616       O  0.57274577  0.91906246  0.07911080    -0.73200
O1617       O  0.52869952  0.95293581  0.00988131    -0.52500
O1618       O  0.57278634  0.97322848  0.05200717    -0.97200
O1619       O  0.57708770  0.97409917  0.13266856    -0.54400
O1620       O  0.58361791  0.95063560  0.09047111    -0.73800
C1621       C  0.58637649  0.93637858  0.08512618     0.98600
O1622       O  0.52829395  0.86981983  0.06757644    -0.62600
O1623       O  0.50045055  0.89619831  0.18264206    -0.57400
O1624       O  0.54491265  0.88676571  0.11609651    -0.94100
O1625       O  0.53513792  0.89280793  0.15665458    -0.92500
O1626       O  0.46816444  0.86833806  0.13921492    -0.92800
O1627       O  0.47055926  0.85471768  0.09139491    -0.91600
C1628       C  0.54221254  0.88441263  0.14189275     1.17400
H1629       H  0.48535361  0.91011554  0.14856742     0.33400
H1630       H  0.50090578  0.88711384  0.05089289     0.44200
H1631       H  0.56064005  0.92750155  0.12445094     0.37700
H1632       H  0.52945078  0.96511229  0.06890259     0.34200
H1633       H  0.44591792  0.86579277  0.06977619     0.26000
H1634       H  0.54217594  0.95537170  0.00857033     0.32000
H1635       H  0.58685526  0.97900587  0.05576269     0.37900
H1636       H  0.45753562  0.87042003  0.14563196     0.32300
H1637       H  0.49948028  0.88333280  0.18058935     0.31200
H1638       H  0.54362667  0.92163334  0.20064928     0.32900
H1639       H  0.58001019  0.96465798  0.14163252     0.31800
H1640       H  0.48262979  0.85397436  0.09235056     0.35800
H1641       H  0.52122450  0.86155499  0.08341023     0.28600
H1642       H  0.48520756  0.96732299  0.11934475     0.32800
H1643       H  0.57946969  0.99823270  0.09239333     0.35700
H1644       H  0.50680364  0.90099712  0.20051403     0.28300
H1645       H  0.51806456  0.86603158  0.05355504     0.41100
H1646       H  0.47613825  0.90769014  0.01745534     0.31200
H1647       H  0.45554320  0.88648124  0.05652911     0.38800
H1648       H  0.56827330  0.97549285  0.14553555     0.30700
H1649       H  0.52255276  0.94666660  0.99242135     0.30700
H1650       H  0.50745031  0.98158363  0.11379145     0.31000
Zr1651     Zr  0.56468250  0.06333858  0.38386228     2.17500
O1652       O  0.53758367  0.03239144  0.36843963    -0.51400
O1653       O  0.54627519  0.07949095  0.37350928    -0.74600
O1654       O  0.54046177  0.04642611  0.41997057    -0.81400
O1655       O  0.59185151  0.06978111  0.31740524    -0.83100
O1656       O  0.55553185  0.05900082  0.46019903    -0.78700
O1657       O  0.56189252  0.05243504  0.33679980    -0.90400
O1658       O  0.56309478  0.11044222  0.38953569    -0.76300
O1659       O  0.57370807  0.08493763  0.42151983    -0.85800
O1660       O  0.58606183  0.09520950  0.36604381    -0.85500
O1661       O  0.57969783  0.05186420  0.41586802    -0.72300
O1662       O  0.59255539  0.06310568  0.36600829    -0.84400
Zr1663     Zr  0.63871972  0.10498245  0.41883938     2.26400
Zr1664     Zr  0.58978973  0.07445907  0.45260903     2.06300
Zr1665     Zr  0.61411613  0.09494922  0.34887050     2.10000
Zr1666     Zr  0.59508958  0.11644462  0.40410777     1.78800
O1667       O  0.63072495  0.08888876  0.31187120    -0.93200
O1668       O  0.58227362  0.12637997  0.44199255    -0.41000
O1669       O  0.62339858  0.11640067  0.38694962    -0.77600
O1670       O  0.61125705  0.10664638  0.43659418    -0.96300
O1671       O  0.61718976  0.07310371  0.43566157    -0.89600
O1672       O  0.62940521  0.08400021  0.38042991    -0.92500
C1673       C  0.54813460  0.09624180  0.37824156     1.01300
C1674       C  0.57389127  0.05621291  0.31704013     1.14200
C1675       C  0.54044826  0.04830847  0.44599335     1.05000
O1676       O  0.58009055  0.08288543  0.49510928    -0.94600
O1677       O  0.61388002  0.09018721  0.48753367    -0.90400
O1678       O  0.64384303  0.10682708  0.46822895    -0.83500
C1679       C  0.63238923  0.10074581  0.48896026     1.11600
O1680       O  0.58401275  0.01910699  0.38385590    -0.96600
Zr1681     Zr  0.60778201  0.05216291  0.39730056     1.88900
O1682       O  0.65932546  0.08991672  0.41999210    -0.73200
O1683       O  0.58430576  0.04439999  0.47395096    -0.52500
O1684       O  0.60457260  0.02986492  0.43379469    -0.97200
O1685       O  0.61658045  0.04125779  0.35615136    -0.54400
O1686       O  0.64071007  0.05922925  0.40355717    -0.73800
C1687       C  0.65686157  0.07340612  0.41186309     0.98600
O1688       O  0.66165906  0.13784427  0.43454472    -0.62600
O1689       O  0.60957190  0.11714958  0.31943916    -0.57400
O1690       O  0.66384359  0.12341723  0.38524020    -0.94100
O1691       O  0.64837889  0.12074556  0.34506454    -0.92500
O1692       O  0.60336696  0.14025960  0.36782008    -0.92800
O1693       O  0.61671811  0.14888862  0.42183241    -0.91600
C1694       C  0.66372363  0.12794060  0.36014646     1.17400
H1695       H  0.58003144  0.09874696  0.35180576     0.33400
H1696       H  0.61539648  0.11565523  0.45157238     0.44200
H1697       H  0.64056471  0.08463223  0.37164282     0.37700
H1698       H  0.57042642  0.03891061  0.42205606     0.34200
H1699       H  0.57927285  0.13610049  0.43416271     0.26000
H1700       H  0.59629828  0.04819992  0.48451897     0.32000
H1701       H  0.61577425  0.02776141  0.43153696     0.37900
H1702       H  0.59622943  0.14713718  0.37240974     0.32300
H1703       H  0.62270995  0.12627809  0.31230600     0.31200
H1704       H  0.62788061  0.09435401  0.29550955     0.32900
H1705       H  0.62988305  0.05175115  0.35157307     0.31800
H1706       H  0.62922998  0.15320781  0.41238442     0.35800
H1707       H  0.66328170  0.14658290  0.41910353     0.28600
H1708       H  0.52575219  0.03333636  0.37140500     0.32800
H1709       H  0.59034725  0.01126167  0.38725321     0.35700
H1710       H  0.60234160  0.10916473  0.30353467     0.28300
H1711       H  0.65434608  0.14085301  0.44812902     0.41100
H1712       H  0.58064537  0.09541124  0.49125895     0.31200
H1713       H  0.56938964  0.11491540  0.44590028     0.38800
H1714       H  0.60832144  0.04209766  0.34169826     0.30700
H1715       H  0.57423102  0.04152246  0.48790804     0.30700
H1716       H  0.53662891  0.02251839  0.38169589     0.31000
Zr1717     Zr  0.80700290  0.09200229  0.04559829     2.17500
O1718       O  0.80162343  0.11804052  0.02945191    -0.51400
O1719       O  0.84106712  0.10960193  0.03323142    -0.74600
O1720       O  0.81740623  0.11848511  0.07894097    -0.81400
O1721       O  0.78095140  0.06316927  0.98216579    -0.83100
O1722       O  0.81657444  0.10539111  0.12038367    -0.78700
O1723       O  0.79974243  0.09400025  0.99818494    -0.90400
O1724       O  0.85478650  0.09255502  0.04996271    -0.76300
O1725       O  0.82280599  0.08387347  0.07988739    -0.85800
O1726       O  0.81330429  0.06812719  0.02608797    -0.85500
O1727       O  0.78433885  0.07989943  0.08268282    -0.72300
O1728       O  0.77602111  0.06488720  0.03344230    -0.84400
Zr1729     Zr  0.77443334  0.01971432  0.08691062     2.26400
Zr1730     Zr  0.80004866  0.07065248  0.11625386     2.06300
Zr1731     Zr  0.78226878  0.04068403  0.01485185     2.10000
Zr1732     Zr  0.82862747  0.05984622  0.06106382     1.78800
O1733       O  0.75294422  0.02403659  0.98725385    -0.93200
O1734       O  0.85232679  0.06900385  0.09765632    -0.41000
O1735       O  0.79756980  0.03218452  0.04995098    -0.77600
O1736       O  0.80623292  0.04626958  0.09856104    -0.96300
O1737       O  0.76871728  0.04404106  0.10531819    -0.89600
O1738       O  0.75947963  0.02832874  0.05154625    -0.92500
C1739       C  0.85579514  0.10767081  0.03876343     1.01300
C1740       C  0.78872783  0.08175699  0.98018697     1.14200
C1741       C  0.82014714  0.11976308  0.10486571     1.05000
O1742       O  0.82838183  0.07924999  0.14459598    -0.94600
O1743       O  0.79032081  0.04800918  0.15326996    -0.90400
O1744       O  0.77431966  0.01711531  0.13692032    -0.83500
C1745       C  0.78122263  0.02955870  0.15649508     1.11600
O1746       O  0.74489862  0.07759661  0.06242791    -0.96600
Zr1747     Zr  0.75361859  0.05255286  0.07046129     1.88900
O1748       O  0.73908504  0.00085664  0.09411081    -0.73200
O1749       O  0.78390835  0.07984112  0.15042303    -0.52500
O1750       O  0.74122211  0.06017403  0.11116367    -0.97200
O1751       O  0.72960704  0.04444281  0.03444095    -0.40000
O1752       O  0.72739827  0.02136121  0.08570809    -0.73800
C1753       C  0.72523434  0.00481951  0.09274628     0.98600
O1754       O  0.78267235  0.99537832  0.10216500    -0.62600
O1755       O  0.80248876  0.03959090  0.97836119    -0.57400
O1756       O  0.76477169  0.99323323  0.05478907    -0.94100
O1757       O  0.77280102  0.00615105  0.01213606    -0.92500
O1758       O  0.84338615  0.05540634  0.02026423    -0.92800
O1759       O  0.83902584  0.03589588  0.06651325    -0.91600
C1760       C  0.76637940  0.99178818  0.02903213     1.17400
H1761       H  0.82153959  0.07327384  0.01025624     0.33400
H1762       H  0.81193661  0.04211277  0.11250897     0.44200
H1763       H  0.74757879  0.01723610  0.04529495     0.37700
H1764       H  0.78215491  0.08999588  0.08957494     0.34200
H1765       H  0.86465108  0.07221186  0.08840952     0.26000
H1766       H  0.79423366  0.08804602  0.16356591     0.32000
H1767       H  0.74184527  0.05182147  0.12568043     0.37900
H1768       H  0.85752270  0.06441063  0.02248860     0.32300
H1769       H  0.79317590  0.03169526  0.96393656     0.31200
H1770       H  0.75707204  0.02022508  0.97047996     0.32900
H1771       H  0.71965089  0.03066838  0.03760770     0.31800
H1772       H  0.83246804  0.02871841  0.08333045     0.35800
H1773       H  0.78997397  0.99393769  0.08689379     0.28600
H1774       H  0.81405424  0.13030954  0.03221632     0.32800
H1775       H  0.73077035  0.07132178  0.06611808     0.35700
H1776       H  0.80942903  0.05292667  0.97071166     0.28300
H1777       H  0.79267380  0.00186807  0.11644276     0.41100
H1778       H  0.82486475  0.08192505  0.16275395     0.31200
H1779       H  0.85439814  0.08171130  0.10411894     0.38800
H1780       H  0.73632293  0.04424623  0.01759276     0.30700
H1781       H  0.78065293  0.08891791  0.14106759     0.30700
H1782       H  0.79246063  0.11850599  0.04266244     0.31000
Zr1783     Zr  0.74321089  0.15084269  0.78139593     2.17500
O1784       O  0.77032424  0.14656760  0.79555915    -0.51400
O1785       O  0.76288115  0.18490458  0.79454682    -0.74600
O1786       O  0.76644007  0.15657604  0.74449259    -0.81400
O1787       O  0.71568483  0.12700498  0.84687970    -0.83100
O1788       O  0.75174878  0.15530110  0.70425592    -0.78700
O1789       O  0.74561150  0.14043987  0.82722560    -0.90400
O1790       O  0.74790978  0.20133273  0.77996949    -0.76300
O1791       O  0.73526330  0.16594246  0.74568213    -0.85800
O1792       O  0.72343113  0.16235812  0.80158187    -0.85500
O1793       O  0.72666349  0.12570786  0.74793374    -0.72300
O1794       O  0.71477496  0.12265465  0.79842163    -0.84400
Zr1795     Zr  0.66957745  0.12323922  0.74869484     2.26400
Zr1796     Zr  0.71768564  0.14084649  0.71313796     2.06300
Zr1797     Zr  0.69489370  0.13417284  0.81804296     2.10000
Zr1798     Zr  0.71520172  0.17691410  0.76532074     1.78800
O1799       O  0.67712389  0.11334093  0.85637251    -0.93200
O1800       O  0.72880437  0.20009604  0.72782132    -0.41000
O1801       O  0.68633933  0.14867166  0.78187530    -0.77600
O1802       O  0.69750081  0.15230085  0.73161071    -0.96300
O1803       O  0.68974274  0.11224861  0.72938008    -0.89600
O1804       O  0.67812931  0.10923136  0.78528461    -0.92500
C1805       C  0.76215017  0.20059476  0.79123587     1.01300
C1806       C  0.73356068  0.13113883  0.84651151     1.14200
C1807       C  0.76649606  0.15834254  0.71842571     1.05000
O1808       O  0.72715435  0.16445163  0.67625065    -0.94600
O1809       O  0.69290511  0.13240484  0.67929669    -0.90400
O1810       O  0.66331187  0.11961283  0.69961343    -0.83500
C1811       C  0.67438063  0.12458028  0.67850902     1.11600
O1812       O  0.72129249  0.08648052  0.76998963    -0.96600
Zr1813     Zr  0.69797558  0.09784544  0.76556783     1.88900
O1814       O  0.64690243  0.08788007  0.74768309    -0.73200
O1815       O  0.72088380  0.11698614  0.68591872    -0.52500
O1816       O  0.69509782  0.07756755  0.72665870    -0.97200
O1817       O  0.69119964  0.07745463  0.80588988    -0.54400
O1818       O  0.66392375  0.07347802  0.76232282    -0.73800
C1819       C  0.64814708  0.07294560  0.75512665     0.98600
O1820       O  0.64817944  0.13561004  0.73509453    -0.62600
O1821       O  0.70210868  0.16139704  0.84799066    -0.57400
O1822       O  0.64551775  0.11757500  0.78302376    -0.94100
O1823       O  0.66093390  0.12585971  0.82398728    -0.92500
O1824       O  0.70869396  0.19287103  0.80278975    -0.92800
O1825       O  0.69488149  0.19055126  0.75209917    -0.91600
C1826       C  0.64578487  0.11998347  0.80885327     1.17400
H1827       H  0.73006118  0.17129018  0.81628753     0.33400
H1828       H  0.69348590  0.15790843  0.71729186     0.44200
H1829       H  0.66681354  0.09891113  0.79422407     0.37700
H1830       H  0.73533610  0.12157212  0.74063275     0.34200
H1831       H  0.73309500  0.21295507  0.73618102     0.26000
H1832       H  0.70744635  0.10745047  0.68030772     0.32000
H1833       H  0.68374671  0.07607568  0.71623828     0.37900
H1834       H  0.71968180  0.19680606  0.81556413     0.32300
H1835       H  0.68923653  0.15902448  0.85415283     0.31200
H1836       H  0.67950999  0.12240031  0.87161153     0.32900
H1837       H  0.67884573  0.07581309  0.81317765     0.31800
H1838       H  0.68139914  0.17957164  0.75387752     0.35800
H1839       H  0.64919524  0.14446930  0.74996148     0.28600
H1840       H  0.78227356  0.15894411  0.79111255     0.32800
H1841       H  0.71342607  0.07209514  0.76984832     0.35700
H1842       H  0.70799816  0.15912146  0.86435383     0.28300
H1843       H  0.65484605  0.14448191  0.71960671     0.41100
H1844       H  0.72606214  0.17534835  0.68406476     0.31200
H1845       H  0.74105748  0.20038283  0.72305315     0.38800
H1846       H  0.70112211  0.08587586  0.81935571     0.30700
H1847       H  0.72731595  0.12398485  0.66894126     0.30700
H1848       H  0.77029975  0.13682900  0.78297283     0.31000
Zr1849     Zr  0.71964248  0.91915795  0.45475497     2.17500
O1850       O  0.69061391  0.89091201  0.47275912    -0.51400
O1851       O  0.73616187  0.90273519  0.47311732    -0.74600
O1852       O  0.70336396  0.89299729  0.42115608    -0.81400
O1853       O  0.71951291  0.95018845  0.51466890    -0.83100
O1854       O  0.71851338  0.90446722  0.38060489    -0.78700
O1855       O  0.70547238  0.91920037  0.49865393    -0.90400
O1856       O  0.76747115  0.91847497  0.45853199    -0.76300
O1857       O  0.74429079  0.92613467  0.42199379    -0.85800
O1858       O  0.74952997  0.94281898  0.47512949    -0.85500
O1859       O  0.71026311  0.93090679  0.41556886    -0.72300
O1860       O  0.71596281  0.94678288  0.46389003    -0.84400
Zr1861     Zr  0.76156661  0.99037752  0.41161396     2.26400
Zr1862     Zr  0.73598806  0.93913507  0.38373682     2.06300
Zr1863     Zr  0.74601007  0.97061427  0.48373529     2.10000
Zr1864     Zr  0.77392500  0.95011180  0.44165284     1.78800
O1865       O  0.73690529  0.99110441  0.50929198    -0.93200
O1866       O  0.78891621  0.93891824  0.40838485    -0.41000
O1867       O  0.77065068  0.97808746  0.45043847    -0.77600
O1868       O  0.76628232  0.96319898  0.40233804    -0.96300
O1869       O  0.73185703  0.96640763  0.39198261    -0.89600
O1870       O  0.73719639  0.98289577  0.44518511    -0.92500
C1871       C  0.75295073  0.90427747  0.47055566     1.01300
C1872       C  0.70701509  0.93191500  0.51612104     1.14200
C1873       C  0.70625323  0.89085361  0.39596632     1.05000
O1874       O  0.75561320  0.93048306  0.35534243    -0.94600
O1875       O  0.74982368  0.96134854  0.34639093    -0.90400
O1876       O  0.76472272  0.99246541  0.36190811    -0.83500
C1877       C  0.75926383  0.97975549  0.34274444     1.11600
O1878       O  0.67328781  0.93450266  0.43060425    -0.96600
Zr1879     Zr  0.70746137  0.95904864  0.42507348     1.88900
O1880       O  0.74638341  0.01028607  0.40332075    -0.73200
O1881       O  0.70984938  0.92891938  0.35054245    -0.52500
O1882       O  0.68841065  0.95399350  0.38379391    -0.97200
O1883       O  0.69288558  0.96911914  0.46048913    -0.54400
O1884       O  0.71376243  0.99042195  0.40871512    -0.73800
C1885       C  0.72874812  0.00687428  0.40324179     0.98600
O1886       O  0.79482163  0.01333176  0.39750572    -0.62600
O1887       O  0.76453456  0.96939035  0.52253721    -0.57400
O1888       O  0.77843379  0.01709958  0.44309172    -0.94100
O1889       O  0.77243554  0.00434255  0.48589818    -0.92500
O1890       O  0.79320359  0.95849181  0.48321006    -0.92800
O1891       O  0.80815131  0.97349745  0.43400413    -0.91600
C1892       C  0.78116209  0.01847750  0.46889544     1.17400
H1893       H  0.75212168  0.93804857  0.49175777     0.33400
H1894       H  0.77643489  0.96694146  0.38892689     0.44200
H1895       H  0.73666106  0.99429243  0.45069870     0.37700
H1896       H  0.69803367  0.92093141  0.40818896     0.34200
H1897       H  0.79493687  0.93279143  0.41927217     0.26000
H1898       H  0.71092645  0.94114927  0.34359284     0.32000
H1899       H  0.69777089  0.96293397  0.37008581     0.37900
H1900       H  0.79239399  0.94624479  0.48951022     0.32300
H1901       H  0.77804773  0.97990066  0.51911057     0.31200
H1902       H  0.74226236  0.99193693  0.52776109     0.32900
H1903       H  0.70234484  0.98303391  0.46370033     0.31800
H1904       H  0.80944311  0.98627645  0.43831863     0.35800
H1905       H  0.80303106  0.01436694  0.41331979     0.28600
H1906       H  0.69263238  0.87968889  0.46999208     0.32800
H1907       H  0.66611785  0.94174173  0.43054878     0.35700
H1908       H  0.76013991  0.97410102  0.53810665     0.28300
H1909       H  0.79809757  0.00631621  0.38378224     0.41100
H1910       H  0.74799324  0.92532592  0.33839240     0.31200
H1911       H  0.77785874  0.92790236  0.39903727     0.38800
H1912       H  0.69350782  0.96243609  0.47719108     0.30700
H1913       H  0.71387559  0.92379255  0.33504512     0.30700
H1914       H  0.67991659  0.88869842  0.46024003     0.31000
Zr1915     Zr  0.59444662  0.85764608  0.71249756     2.17500
O1916       O  0.62748657  0.86765305  0.69784703    -0.51400
O1917       O  0.58085200  0.82383218  0.70031850    -0.74600
O1918       O  0.61171656  0.84923712  0.74662972    -0.81400
O1919       O  0.58910378  0.88012673  0.64799844    -0.83100
O1920       O  0.60152064  0.85368869  0.78771614    -0.78700
O1921       O  0.60234390  0.86251998  0.66459940    -0.90400
O1922       O  0.54938663  0.80734484  0.71438593    -0.76300
O1923       O  0.57183901  0.84177659  0.74825911    -0.85800
O1924       O  0.56297432  0.84666449  0.69329886    -0.85500
O1925       O  0.60345792  0.88222203  0.74672295    -0.72300
O1926       O  0.59426205  0.88609862  0.69642084    -0.84400
Zr1927     Zr  0.54951664  0.88521120  0.74932055     2.26400
Zr1928     Zr  0.57983692  0.86625637  0.78185526     2.06300
Zr1929     Zr  0.56253511  0.87510651  0.67829759     2.10000
Zr1930     Zr  0.54063828  0.83143048  0.72958786     1.78800
O1931       O  0.56816112  0.89801427  0.64157676    -0.93200
O1932       O  0.53051416  0.80875388  0.76774613    -0.41000
O1933       O  0.54022003  0.86023020  0.71513380    -0.77600
O1934       O  0.54793368  0.85550961  0.76452704    -0.96300
O1935       O  0.58092677  0.89546459  0.76698886    -0.89600
O1936       O  0.57126823  0.89971115  0.71196419    -0.92500
C1937       C  0.56453334  0.80816541  0.70356475     1.01300
C1938       C  0.60076312  0.87329276  0.64647982     1.14200
C1939       C  0.61163103  0.84888359  0.77282189     1.05000
O1940       O  0.56443518  0.83883667  0.81329741    -0.94600
O1941       O  0.56539190  0.87496475  0.81804262    -0.90400
O1942       O  0.54895585  0.88867830  0.79909124    -0.83500
C1943       C  0.55536453  0.88347826  0.81974341     1.11600
O1944       O  0.63687091  0.92132618  0.72075231    -0.96600
Zr1945     Zr  0.60280077  0.91045707  0.73015150     1.88900
O1946       O  0.56250731  0.92057615  0.75135635    -0.73200
O1947       O  0.60466240  0.88750207  0.81417174    -0.52500
O1948       O  0.62303027  0.92964538  0.76808832    -0.97200
O1949       O  0.61423911  0.93127786  0.68987097    -0.54400
O1950       O  0.59417667  0.93534011  0.73802667    -0.73800
C1951       C  0.57891692  0.93572727  0.74549744     0.98600
O1952       O  0.51632121  0.87454281  0.76405450    -0.62600
O1953       O  0.54193924  0.84911591  0.64697860    -0.57400
O1954       O  0.52987189  0.89056233  0.71668812    -0.94100
O1955       O  0.53588505  0.88228527  0.67497533    -0.92500
O1956       O  0.51898973  0.81535011  0.69128290    -0.92800
O1957       O  0.50606303  0.81689175  0.73925959    -0.91600
C1958       C  0.52680921  0.88786941  0.69102905     1.17400
H1959       H  0.56044800  0.83787344  0.67831227     0.33400
H1960       H  0.53847966  0.84979080  0.77896312     0.44200
H1961       H  0.57021364  0.91027370  0.70394720     0.37700
H1962       H  0.61631328  0.88612925  0.75347786     0.34200
H1963       H  0.52381760  0.79570006  0.75927626     0.26000
H1964       H  0.60678998  0.87871539  0.82622921     0.32000
H1965       H  0.61380188  0.92954302  0.78170698     0.37900
H1966       H  0.51671823  0.80188884  0.69143868     0.32300
H1967       H  0.52972858  0.84958567  0.64593449     0.31200
H1968       H  0.55862785  0.89017641  0.62733290     0.32900
H1969       H  0.60398323  0.93454142  0.68578596     0.31800
H1970       H  0.50498959  0.82694128  0.74975988     0.35800
H1971       H  0.50800168  0.86370630  0.75166004     0.28600
H1972       H  0.62835280  0.85562827  0.69792741     0.32800
H1973       H  0.64365899  0.93570761  0.72172792     0.35700
H1974       H  0.54810438  0.85375834  0.62893914     0.28300
H1975       H  0.51478729  0.86808786  0.78187450     0.41100
H1976       H  0.55094478  0.83621751  0.81549912     0.31200
H1977       H  0.54273689  0.81005084  0.77502572     0.38800
H1978       H  0.61327956  0.92254234  0.67486253     0.30700
H1979       H  0.61674942  0.89448939  0.80334355     0.30700
H1980       H  0.63603715  0.87564487  0.71288380     0.31000
Zr1981     Zr  0.17590187  0.91864679  0.94133615     2.17500
O1982       O  0.17735486  0.88909404  0.95026416    -0.51400
O1983       O  0.14137569  0.89987853  0.95287582    -0.74600
O1984       O  0.18285957  0.91524888  0.98857279    -0.81400
O1985       O  0.17845358  0.91040732  0.86490635    -0.83100
O1986       O  0.19209818  0.94359946  0.01102761    -0.78700
O1987       O  0.17191393  0.89524112  0.90603391    -0.90400
O1988       O  0.12707757  0.91726948  0.93992588    -0.76300
O1989       O  0.16602869  0.93991620  0.96073178    -0.85800
O1990       O  0.16145071  0.92719913  0.90539305    -0.85500
O1991       O  0.20542348  0.94611064  0.95803654    -0.72300
O1992       O  0.20070850  0.93404495  0.90728313    -0.84400
Zr1993     Zr  0.20677844  0.99257836  0.90693071     2.26400
Zr1994     Zr  0.19526672  0.96762514  0.97687827     2.06300
Zr1995     Zr  0.18637572  0.94351568  0.87217747     2.10000
Zr1996     Zr  0.15235719  0.94897049  0.92428645     1.78800
O1997       O  0.20641767  0.94145074  0.83634448    -0.93200
O1998       O  0.13659956  0.95633606  0.96114376    -0.41000
O1999       O  0.17707541  0.96543434  0.89043300    -0.77600
O2000       O  0.18125059  0.97693335  0.94056855    -0.96300
O2001       O  0.22014396  0.98304858  0.94327176    -0.89600
O2002       O  0.21594677  0.97079133  0.88778108    -0.92500
C2003       C  0.12646590  0.90201889  0.94990152     1.01300
C2004       C  0.17362797  0.89549415  0.87998610     1.14200
C2005       C  0.18853758  0.92590541  0.00997033     1.05000
O2006       O  0.17245286  0.96700991  0.01043847    -0.94600
O2007       O  0.20393843  0.00183965  0.98257759    -0.90400
O2008       O  0.21293454  0.01691406  0.94126428    -0.83500
C2009       C  0.21024731  0.01692205  0.96701333     1.11600
O2010       O  0.23859483  0.93640028  0.92476019    -0.96600
Zr2011     Zr  0.22958438  0.96162657  0.92394126     1.88900
O2012       O  0.24228363  0.01429250  0.90900402    -0.73200
O2013       O  0.22242925  0.98311084  0.00852411    -0.52500
O2014       O  0.24923681  0.96386143  0.96346334    -0.97200
O2015       O  0.25061185  0.96462386  0.88587678    -0.54400
O2016       O  0.25404897  0.99555166  0.92603678    -0.73800
C2017       C  0.25600142  0.01200934  0.91911229     0.98600
O2018       O  0.19703041  0.01558533  0.89058743    -0.62600
O2019       O  0.15711444  0.93025851  0.84436758    -0.57400
O2020       O  0.20883172  0.99794628  0.85730621    -0.94100
O2021       O  0.19301916  0.96785696  0.83823240    -0.92500
O2022       O  0.12932595  0.93594976  0.88671583    -0.92800
O2023       O  0.14022725  0.97033555  0.90973849    -0.91600
C2024       C  0.20178134  0.98643277  0.83671442     1.17400
H2025       H  0.15039434  0.91583134  0.89780796     0.33400
H2026       H  0.17736166  0.98597133  0.94699016     0.44200
H2027       H  0.22510693  0.97689834  0.87310540     0.37700
H2028       H  0.21191442  0.94244246  0.97140345     0.34200
H2029       H  0.12293371  0.95086631  0.95519231     0.26000
H2030       H  0.21632398  0.98107828  0.02669921     0.32000
H2031       H  0.26245336  0.97472612  0.95939828     0.37900
H2032       H  0.11649756  0.93191037  0.89501339     0.32300
H2033       H  0.15431912  0.94105103  0.84246249     0.31200
H2034       H  0.19721265  0.93416916  0.82148154     0.32900
H2035       H  0.25593064  0.97806050  0.87892896     0.31800
H2036       H  0.15207349  0.98297566  0.90605249     0.35800
H2037       H  0.18598087  0.00795888  0.87812422     0.28600
H2038       H  0.16789309  0.88213565  0.96503404     0.32800
H2039       H  0.25298805  0.94330909  0.92445731     0.35700
H2040       H  0.16138400  0.92885496  0.82601770     0.28300
H2041       H  0.19089335  0.01819009  0.90630399     0.41100
H2042       H  0.16643559  0.97394053  0.00159735     0.31200
H2043       H  0.13588664  0.94774369  0.97629120     0.38800
H2044       H  0.24163621  0.95621829  0.87146910     0.30700
H2045       H  0.22839252  0.97473264  0.00849737     0.30700
H2046       H  0.19029936  0.89345075  0.95842172     0.31000
Zr2047     Zr  0.23451201  0.86251968  0.21910074     2.17500
O2048       O  0.20533922  0.86523350  0.21460047    -0.51400
O2049       O  0.21458305  0.82844420  0.20501425    -0.74600
O2050       O  0.23035678  0.87229818  0.17368434    -0.81400
O2051       O  0.22744234  0.85655360  0.29618093    -0.83100
O2052       O  0.25808397  0.88214795  0.14919647    -0.78700
O2053       O  0.21269419  0.85789644  0.25725921    -0.90400
O2054       O  0.23130469  0.81257150  0.21284672    -0.76300
O2055       O  0.25502533  0.85391778  0.19442188    -0.85800
O2056       O  0.24340140  0.84514963  0.25000636    -0.85500
O2057       O  0.26196706  0.89302062  0.20465609    -0.72300
O2058       O  0.25089482  0.88459676  0.25589045    -0.84400
Zr2059     Zr  0.30888635  0.89003952  0.24909064     2.26400
Zr2060     Zr  0.28286503  0.88412325  0.18093598     2.06300
Zr2061     Zr  0.26060574  0.86736798  0.28582512     2.10000
Zr2062     Zr  0.26428597  0.83713431  0.22585949     1.78800
O2063       O  0.25852653  0.88617891  0.32342160    -0.93200
O2064       O  0.27000871  0.82541118  0.18300896    -0.41000
O2065       O  0.28169055  0.85905500  0.26254151    -0.77600
O2066       O  0.29232868  0.86716954  0.21250328    -0.96300
O2067       O  0.29921621  0.90631856  0.21730089    -0.89600
O2068       O  0.28775253  0.89793996  0.27310057    -0.92500
C2069       C  0.21600893  0.81297983  0.20528667     1.01300
C2070       C  0.21302945  0.85542693  0.28312735     1.14200
C2071       C  0.24046040  0.87855548  0.15180241     1.05000
O2072       O  0.28268367  0.86557269  0.14148312    -0.94600
O2073       O  0.31666410  0.89270636  0.17167896    -0.90400
O2074       O  0.33229925  0.89805006  0.21242959    -0.83500
C2075       C  0.33189902  0.89750233  0.18628592     1.11600
O2076       O  0.25304140  0.92310358  0.24536626    -0.96600
Zr2077     Zr  0.27843815  0.91449261  0.24150922     1.88900
O2078       O  0.33069797  0.92561558  0.25291495    -0.73200
O2079       O  0.29792068  0.91481579  0.15614624    -0.52500
O2080       O  0.28065039  0.93783230  0.20732407    -0.97200
O2081       O  0.28316738  0.93302310  0.28321015    -0.54400
O2082       O  0.31243450  0.93891298  0.23961022    -0.73800
C2083       C  0.32872311  0.94017519  0.24562909     0.98600
O2084       O  0.33185798  0.87942794  0.26163043    -0.62600
O2085       O  0.24804472  0.83780452  0.31314918    -0.57400
O2086       O  0.31532484  0.88821757  0.29778344    -0.94100
O2087       O  0.28546197  0.87221079  0.31737788    -0.92500
O2088       O  0.25424820  0.81119235  0.25944502    -0.92800
O2089       O  0.28586636  0.82377485  0.23088906    -0.91600
C2090       C  0.30395615  0.88031908  0.31835859     1.17400
H2091       H  0.23207740  0.83370830  0.25695944     0.33400
H2092       H  0.30112000  0.86373925  0.20390935     0.44200
H2093       H  0.29413918  0.90587835  0.28876819     0.37700
H2094       H  0.25813142  0.90033671  0.19299519     0.34200
H2095       H  0.26417200  0.81118794  0.18555226     0.26000
H2096       H  0.29707712  0.91103619  0.13679707     0.32000
H2097       H  0.29223241  0.94073804  0.19633596     0.37900
H2098       H  0.24302550  0.81066917  0.26897825     0.32300
H2099       H  0.25874512  0.83482514  0.31398085     0.31200
H2100       H  0.25461824  0.87731613  0.33932553     0.32900
H2101       H  0.29681839  0.93786177  0.28873602     0.31800
H2102       H  0.29913899  0.83520635  0.22995547     0.35800
H2103       H  0.33023356  0.86982539  0.24755753     0.28600
H2104       H  0.19801213  0.85693067  0.19898558     0.32800
H2105       H  0.25954689  0.93672226  0.25186224     0.35700
H2106       H  0.24712607  0.84187467  0.33186131     0.28300
H2107       H  0.34491127  0.89078399  0.25825469     0.41100
H2108       H  0.28902244  0.85824009  0.14782146     0.31200
H2109       H  0.26134288  0.82672307  0.16973155     0.38800
H2110       H  0.27526255  0.92320901  0.29716167     0.30700
H2111       H  0.28861703  0.91961612  0.15785458     0.30700
H2112       H  0.20992448  0.87875855  0.20851081     0.31000
Zr2113     Zr  0.40387401  0.94004538  0.61259199     2.17500
O2114       O  0.43479671  0.96995196  0.61994138    -0.51400
O2115       O  0.42235296  0.92553906  0.63140904    -0.74600
O2116       O  0.40589403  0.95578788  0.65651218    -0.81400
O2117       O  0.41236128  0.94187062  0.53558371    -0.83100
O2118       O  0.37612769  0.94075171  0.67668978    -0.78700
O2119       O  0.42648054  0.95775362  0.57477337    -0.90400
O2120       O  0.40544770  0.89269795  0.62598549    -0.76300
O2121       O  0.38171842  0.91200007  0.63830268    -0.85800
O2122       O  0.39619596  0.91214507  0.58544002    -0.85500
O2123       O  0.37600462  0.94392446  0.62086162    -0.72300
O2124       O  0.38917311  0.94374264  0.57180583    -0.84400
Zr2125     Zr  0.33090208  0.89196199  0.57785842     2.26400
Zr2126     Zr  0.35373485  0.91531960  0.64617193     2.06300
Zr2127     Zr  0.38075457  0.91518714  0.54566156     2.10000
Zr2128     Zr  0.37325343  0.88431915  0.61047355     1.78800
O2129       O  0.38779226  0.92582920  0.49838647    -0.93200
O2130       O  0.36664320  0.86991697  0.65583971    -0.41000
O2131       O  0.35793341  0.88691026  0.56974471    -0.77600
O2132       O  0.34523901  0.88734823  0.61848206    -0.96300
O2133       O  0.33911473  0.91940309  0.60599925    -0.89600
O2134       O  0.35349257  0.91977985  0.55256119    -0.92500
C2135       C  0.42058444  0.90855465  0.63312992     1.01300
C2136       C  0.42639171  0.95549583  0.54875607     1.14200
C2137       C  0.39418750  0.95384837  0.67594428     1.05000
O2138       O  0.35453041  0.89884813  0.68770869    -0.94600
O2139       O  0.31972351  0.89072988  0.65392265    -0.90400
O2140       O  0.30584006  0.87916949  0.61248142    -0.83500
C2141       C  0.30513956  0.88003080  0.63849977     1.11600
O2142       O  0.38440922  0.98178911  0.58125718    -0.96600
Zr2143     Zr  0.36125301  0.94701540  0.58029677     1.88900
O2144       O  0.30921006  0.90469274  0.56806065    -0.73200
O2145       O  0.33686849  0.93021973  0.66795493    -0.52500
O2146       O  0.35288932  0.96649888  0.60954247    -0.97200
O2147       O  0.36568270  0.96162542  0.53527237    -0.54400
O2148       O  0.32802451  0.93767170  0.56829898    -0.73800
C2149       C  0.31164546  0.92189976  0.56583783     0.98600
O2150       O  0.30835075  0.85745360  0.56998029    -0.62600
O2151       O  0.39395718  0.89413058  0.53492964    -0.57400
O2152       O  0.32641544  0.88433094  0.52907890    -0.94100
O2153       O  0.35684619  0.89648730  0.51183023    -0.92500
O2154       O  0.38135475  0.86455939  0.58138214    -0.92800
O2155       O  0.35058400  0.84939611  0.61041574    -0.91600
C2156       C  0.33834620  0.88749049  0.50939330     1.17400
H2157       H  0.40774887  0.91163129  0.58076139     0.33400
H2158       H  0.33595853  0.87555548  0.62767999     0.44200
H2159       H  0.34808192  0.92109073  0.53561771     0.37700
H2160       H  0.37943927  0.95571692  0.63066109     0.34200
H2161       H  0.37282802  0.86174197  0.65611271     0.26000
H2162       H  0.33873065  0.92928896  0.68772166     0.32000
H2163       H  0.33940220  0.95751407  0.61559127     0.37900
H2164       H  0.39566739  0.87060789  0.58240337     0.32300
H2165       H  0.38505314  0.88509919  0.52096134     0.31200
H2166       H  0.39511290  0.91972573  0.49116081     0.32900
H2167       H  0.35257429  0.95519320  0.52695191     0.31800
H2168       H  0.34071413  0.84754343  0.59659571     0.35800
H2169       H  0.31529376  0.85317467  0.55756904     0.28600
H2170       H  0.43997676  0.96815885  0.63738816     0.32800
H2171       H  0.39687162  0.98295898  0.57537490     0.35700
H2172       H  0.40617095  0.90261853  0.52496582     0.28300
H2173       H  0.30790075  0.85100027  0.58746421     0.41100
H2174       H  0.34139407  0.89335952  0.69574991     0.31200
H2175       H  0.37476459  0.88082880  0.66821365     0.38800
H2176       H  0.37296352  0.95666679  0.52486034     0.30700
H2177       H  0.34482638  0.94426553  0.66368249     0.30700
H2178       H  0.43148640  0.98023848  0.62350494     0.31000
Zr2179     Zr  0.46982666  0.06656900  0.87820462     2.17500
O2180       O  0.47145561  0.03728286  0.86827130    -0.51400
O2181       O  0.50349391  0.08233248  0.86271373    -0.74600
O2182       O  0.45922988  0.05433972  0.83199753    -0.81400
O2183       O  0.48102707  0.06543579  0.95289992    -0.83100
O2184       O  0.44276193  0.06832086  0.81380005    -0.78700
O2185       O  0.47533947  0.04810225  0.91394848    -0.90400
O2186       O  0.51865545  0.11464071  0.87212216    -0.76300
O2187       O  0.47547645  0.09562560  0.85559528    -0.85800
O2188       O  0.48818605  0.09270153  0.90876623    -0.85500
O2189       O  0.43780818  0.06174492  0.86920082    -0.72300
O2190       O  0.44989559  0.05965551  0.91804360    -0.84400
Zr2191     Zr  0.44187984  0.11099842  0.91760605     2.26400
Zr2192     Zr  0.44378671  0.09138694  0.84726925     2.06300
Zr2193     Zr  0.46810272  0.08664848  0.94763331     2.10000
Zr2194     Zr  0.49347761  0.12157111  0.88676772     1.78800
O2195       O  0.45610676  0.06579776  0.98772595    -0.93200
O2196       O  0.50640019  0.14000405  0.84476455    -0.41000
O2197       O  0.47397215  0.11622905  0.92675824    -0.77600
O2198       O  0.46213738  0.11787343  0.87784388    -0.96300
O2199       O  0.42395572  0.08485004  0.88674850    -0.89600
O2200       O  0.43644870  0.08196621  0.93953210    -0.92500
C2201       C  0.51860236  0.09936276  0.86356178     1.01300
C2202       C  0.48035351  0.05151280  0.93915699     1.14200
C2203       C  0.44928857  0.05642347  0.81297870     1.05000
O2204       O  0.46085111  0.11097434  0.80769065    -0.94600
O2205       O  0.43363241  0.11563878  0.84189432    -0.90400
O2206       O  0.43023643  0.12540092  0.88413827    -0.83500
C2207       C  0.42925019  0.12559761  0.85806269     1.11600
O2208       O  0.40806930  0.02165408  0.90294786    -0.96600
Zr2209     Zr  0.41859859  0.05599804  0.90917354     1.88900
O2210       O  0.40712397  0.09633816  0.92716725    -0.73200
O2211       O  0.41188334  0.07560349  0.82568722    -0.52500
O2212       O  0.39026482  0.03945996  0.87960742    -0.97200
O2213       O  0.40962902  0.03853994  0.95243720    -0.54400
O2214       O  0.39438558  0.06350010  0.92587768    -0.73800
C2215       C  0.39301935  0.07876078  0.92962149     0.98600
O2216       O  0.45234028  0.14486007  0.92822963    -0.62600
O2217       O  0.49952934  0.10806237  0.96847463    -0.57400
O2218       O  0.44450456  0.11677302  0.96721870    -0.94100
O2219       O  0.45992113  0.10128698  0.98393266    -0.92500
O2220       O  0.51907736  0.13775054  0.92059771    -0.92800
O2221       O  0.50329506  0.15595605  0.88871494    -0.91600
C2222       C  0.45136439  0.11117080  0.98689395     1.17400
H2223       H  0.50020340  0.09332090  0.91406717     0.33400
H2224       H  0.46455123  0.12998173  0.86973692     0.44200
H2225       H  0.42912470  0.07958089  0.95614673     0.37700
H2226       H  0.43025857  0.05047858  0.85793090     0.34200
H2227       H  0.52068835  0.14719023  0.84729121     0.26000
H2228       H  0.41457761  0.07818764  0.80598831     0.32000
H2229       H  0.38766506  0.04979846  0.87325034     0.37900
H2230       H  0.52508861  0.12947093  0.92246141     0.32300
H2231       H  0.49911472  0.11994436  0.97336410     0.31200
H2232       H  0.46664873  0.07202645  0.00135646     0.32900
H2233       H  0.40482255  0.04546760  0.96393966     0.31800
H2234       H  0.49742633  0.15731145  0.90573659     0.35800
H2235       H  0.46368119  0.14911659  0.94043413     0.28600
H2236       H  0.48035654  0.04066529  0.85252519     0.32800
H2237       H  0.39463224  0.01442622  0.91014811     0.35700
H2238       H  0.49911877  0.10183097  0.98613892     0.28300
H2239       H  0.45808769  0.15215143  0.91116045     0.41100
H2240       H  0.46919615  0.12423504  0.81500918     0.31200
H2241       H  0.50408522  0.13011066  0.83080063     0.38800
H2242       H  0.42214787  0.04146468  0.96080613     0.30700
H2243       H  0.40698357  0.06148099  0.82773380     0.30700
H2244       H  0.45847315  0.02759763  0.86127131     0.31000
Zr2245     Zr  0.26337063  0.09139345  0.54077396     2.17500
O2246       O  0.29435403  0.12095483  0.53200846    -0.51400
O2247       O  0.24750488  0.10979857  0.52842909    -0.74600
O2248       O  0.27366387  0.09488896  0.49321074    -0.81400
O2249       O  0.27085103  0.10049467  0.61736141    -0.83100
O2250       O  0.25537814  0.06574526  0.47218943    -0.78700
O2251       O  0.28145010  0.11542482  0.57635405    -0.90400
O2252       O  0.21596381  0.09335713  0.54203643    -0.76300
O2253       O  0.23214755  0.07018847  0.52139421    -0.85800
O2254       O  0.24012063  0.08293544  0.57631723    -0.85500
O2255       O  0.26539200  0.06372520  0.52479621    -0.72300
O2256       O  0.27264240  0.07605874  0.57533749    -0.84400
Zr2257     Zr  0.21988973  0.01724351  0.57531350     2.26400
Zr2258     Zr  0.23365349  0.04237250  0.50581000     2.06300
Zr2259     Zr  0.24850691  0.06658434  0.60985229     2.10000
Zr2260     Zr  0.20924577  0.06129053  0.55754704     1.78800
O2261       O  0.27273415  0.06940300  0.64276332    -0.93200
O2262       O  0.18552329  0.05449934  0.52165801    -0.41000
O2263       O  0.21733451  0.04458808  0.59142602    -0.77600
O2264       O  0.21010614  0.03307051  0.54161047    -0.96300
O2265       O  0.24296024  0.02684234  0.53950008    -0.89600
O2266       O  0.25064613  0.03908173  0.59497251    -0.92500
C2267       C  0.23073764  0.10822740  0.53152528     1.01300
C2268       C  0.28128107  0.11544632  0.60256234     1.14200
C2269       C  0.26909708  0.08359921  0.47246017     1.05000
O2270       O  0.21169293  0.04475096  0.47341825    -0.94600
O2271       O  0.20878117  0.00817568  0.49895805    -0.90400
O2272       O  0.20317844  0.99308099  0.54015624    -0.83500
C2273       C  0.20049894  0.99301839  0.51438137     1.11600
O2274       O  0.30793881  0.07265462  0.55730102    -0.96600
Zr2275     Zr  0.27362146  0.04807315  0.55937076     1.88900
O2276       O  0.23376169  0.99535771  0.57536359    -0.73200
O2277       O  0.24357543  0.02585387  0.47335877    -0.52500
O2278       O  0.29037454  0.04358296  0.52104813    -0.97200
O2279       O  0.29138206  0.04501563  0.59784887    -0.54400
O2280       O  0.26414595  0.01409774  0.55826271    -0.73800
C2281       C  0.24981977  0.99764611  0.56545818     0.98600
O2282       O  0.18663167  0.99384127  0.58901598    -0.62600
O2283       O  0.23270306  0.07862526  0.64032323    -0.57400
O2284       O  0.21615978  0.01192500  0.62474345    -0.94100
O2285       O  0.23150226  0.04209175  0.64366087    -0.92500
O2286       O  0.19892165  0.07282204  0.59652046    -0.92800
O2287       O  0.17558230  0.04051785  0.57151364    -0.91600
C2288       C  0.22127950  0.02355769  0.64524723     1.17400
H2289       H  0.24039011  0.09429762  0.58379875     0.33400
H2290       H  0.19727428  0.02398817  0.53489821     0.44200
H2291       H  0.25362225  0.03301720  0.60983224     0.37700
H2292       H  0.27565432  0.06734662  0.51168513     0.34200
H2293       H  0.17937060  0.06229819  0.52650055     0.26000
H2294       H  0.24010582  0.02879552  0.45529322     0.32000
H2295       H  0.27994247  0.03297652  0.51026003     0.37900
H2296       H  0.20419835  0.08689749  0.59326576     0.32300
H2297       H  0.21909034  0.06786048  0.64183365     0.31200
H2298       H  0.27171175  0.07698902  0.65798018     0.32900
H2299       H  0.28306028  0.03168825  0.60506521     0.31800
H2300       H  0.17527556  0.02894958  0.57970156     0.35800
H2301       H  0.18292599  0.00101216  0.60188419     0.28600
H2302       H  0.29187856  0.12784828  0.51706680     0.32800
H2303       H  0.30811677  0.08519399  0.55582082     0.35700
H2304       H  0.23845271  0.07922411  0.65843548     0.28300
H2305       H  0.17845679  0.99203439  0.57283207     0.41100
H2306       H  0.19937528  0.03220042  0.47488581     0.31200
H2307       H  0.19341069  0.06107166  0.50534293     0.38800
H2308       H  0.29104150  0.05367920  0.61201187     0.30700
H2309       H  0.25796327  0.03318567  0.47374754     0.30700
H2310       H  0.30297991  0.11658176  0.52407527     0.31000
Zr2311     Zr  0.38899333  0.15766659  0.27719331     2.17500
O2312       O  0.36041223  0.16100582  0.28492053    -0.51400
O2313       O  0.40411296  0.19149648  0.29211522    -0.74600
O2314       O  0.37424182  0.14605418  0.32186975    -0.81400
O2315       O  0.38808050  0.16545546  0.20098344    -0.83100
O2316       O  0.38576754  0.12778419  0.34152734    -0.78700
O2317       O  0.37048815  0.16077866  0.23946564    -0.90400
O2318       O  0.43644188  0.20274490  0.29701648    -0.76300
O2319       O  0.41602333  0.16138276  0.30337014    -0.85800
O2320       O  0.41723620  0.17678187  0.25011611    -0.85500
O2321       O  0.38272124  0.12501353  0.28582854    -0.72300
O2322       O  0.38432586  0.13899648  0.23679886    -0.84400
Zr2323     Zr  0.43312638  0.12792957  0.24301244     2.26400
Zr2324     Zr  0.41059718  0.12919352  0.31109462     2.06300
Zr2325     Zr  0.41311982  0.15779832  0.21059493     2.10000
Zr2326     Zr  0.44396307  0.17957591  0.27559389     1.78800
O2327       O  0.39998443  0.15164034  0.16455260    -0.93200
O2328       O  0.46186166  0.18782327  0.31834884    -0.41000
O2329       O  0.44032892  0.16094073  0.23523010    -0.77600
O2330       O  0.43882002  0.14747209  0.28334558    -0.96300
O2331       O  0.40528255  0.11021188  0.27101548    -0.89600
O2332       O  0.40632684  0.12508784  0.21761772    -0.92500
C2333       C  0.42129679  0.20452849  0.29934259     1.01300
C2334       C  0.37357098  0.16431497  0.21382433     1.14200
C2335       C  0.37458739  0.13515437  0.34094856     1.05000
O2336       O  0.42915917  0.14722704  0.35078562    -0.94600
O2337       O  0.43334443  0.11732007  0.31871641    -0.90400
O2338       O  0.44485993  0.11436322  0.27757306    -0.83500
C2339       C  0.44364245  0.11270582  0.30359935     1.11600
O2340       O  0.34445325  0.09831910  0.24535007    -0.96600
Zr2341     Zr  0.37851642  0.10687959  0.24522052     1.88900
O2342       O  0.41753511  0.09285339  0.23365710    -0.73200
O2343       O  0.39506952  0.09775805  0.33420695    -0.52500
O2344       O  0.35845983  0.07941668  0.27493499    -0.97200
O2345       O  0.36466395  0.09840750  0.19960691    -0.54400
O2346       O  0.38486927  0.08096035  0.23336979    -0.73800
C2347       C  0.39983435  0.07891630  0.23128529     0.98600
O2348       O  0.46703688  0.13660271  0.23672407    -0.62600
O2349       O  0.43553508  0.19154409  0.19822662    -0.57400
O2350       O  0.44068213  0.13124565  0.19400530    -0.94100
O2351       O  0.43239117  0.15291034  0.17744447    -0.92500
O2352       O  0.46110499  0.20828889  0.24674644    -0.92800
O2353       O  0.47838024  0.19046857  0.26998524    -0.91600
C2354       C  0.43969733  0.14185808  0.17481367     1.17400
H2355       H  0.41869852  0.18928814  0.24538749     0.33400
H2356       H  0.45029471  0.14915416  0.29260438     0.44200
H2357       H  0.40471194  0.11840144  0.20058611     0.37700
H2358       H  0.37075036  0.11741052  0.29572577     0.34200
H2359       H  0.47030288  0.20215209  0.31775589     0.26000
H2360       H  0.39816591  0.10087371  0.35371227     0.32000
H2361       H  0.36786046  0.07803395  0.28663799     0.37900
H2362       H  0.46575201  0.21946182  0.25932648     0.32300
H2363       H  0.44683554  0.19138732  0.19001591     0.31200
H2364       H  0.40667341  0.16445196  0.15528187     0.32900
H2365       H  0.37115401  0.09195981  0.19080199     0.31800
H2366       H  0.47915377  0.18462064  0.25259182     0.35800
H2367       H  0.47159268  0.14467666  0.22004270     0.28600
H2368       H  0.36351526  0.16955180  0.30099978     0.32800
H2369       H  0.33722062  0.08503662  0.23764558     0.35700
H2370       H  0.42920468  0.19426249  0.18280379     0.28300
H2371       H  0.47409661  0.14590024  0.25158723     0.41100
H2372       H  0.42657603  0.13712289  0.36462671     0.31200
H2373       H  0.45204320  0.18555219  0.33243147     0.38800
H2374       H  0.36984585  0.11102660  0.18999097     0.30700
H2375       H  0.38093194  0.09287261  0.33285464     0.30700
H2376       H  0.34990851  0.14807304  0.29099188     0.31000
C2377       C  0.30365920  0.09369733  0.41277822     0.15900
C2378       C  0.31525585  0.09202169  0.39273321    -0.33100
C2379       C  0.33213188  0.10903455  0.38470941     0.20300
C2380       C  0.33699051  0.12702956  0.39553968     0.02500
C2381       C  0.32550296  0.12865769  0.41585779    -0.22800
C2382       C  0.30885521  0.11155183  0.42438956     0.11700
S2383       S  0.28321582  0.07462626  0.42623837    -0.06500
C2384       C  0.28191766  0.09070924  0.44846698    -0.10000
C2385       C  0.29647262  0.10992843  0.44499172    -0.26600
S2386       S  0.35750073  0.14607474  0.38187234    -0.03800
C2387       C  0.35993235  0.12946606  0.36233773    -0.17200
C2388       C  0.34540226  0.11032745  0.36585823    -0.15200
H2389       H  0.31144298  0.07802565  0.38406261     0.20100
H2390       H  0.32946694  0.14261004  0.42480244     0.16200
H2391       H  0.29844315  0.12190530  0.45770762     0.18700
H2392       H  0.34428133  0.09812355  0.35450798     0.12000
C2393       C  0.44949450  0.14274557  0.09858971     0.15900
C2394       C  0.45022419  0.14601291  0.07039305    -0.33100
C2395       C  0.44920538  0.13144442  0.05323249     0.20300
C2396       C  0.44769592  0.11452263  0.06389658     0.02500
C2397       C  0.44724953  0.11139732  0.09200284    -0.22800
C2398       C  0.44816365  0.12587247  0.10910562     0.11700
S2399       S  0.44851179  0.15763607  0.12257771    -0.06500
C2400       C  0.44606636  0.14085571  0.14705489    -0.10000
C2401       C  0.44653549  0.12483916  0.13695317    -0.26600
S2402       S  0.44680693  0.09862698  0.04019934    -0.03800
C2403       C  0.44880974  0.11496782  0.01540675    -0.17200
C2404       C  0.44971062  0.13176199  0.02519059    -0.15200
H2405       H  0.45114210  0.15913775  0.06221619     0.20100
H2406       H  0.44593965  0.09809698  0.10016928     0.16200
H2407       H  0.44427460  0.11243369  0.14902800     0.18700
H2408       H  0.45140602  0.14376160  0.01265384     0.12000
C2409       C  0.27094427  0.93389640  0.57093290     0.15900
C2410       C  0.25880857  0.94035864  0.58214176    -0.33100
C2411       C  0.25739025  0.95518843  0.56824949     0.20300
C2412       C  0.26694146  0.96240727  0.54368349     0.02500
C2413       C  0.27849608  0.95556737  0.53215384    -0.22800
C2414       C  0.28071109  0.94161288  0.54666145     0.11700
S2415       S  0.27778552  0.91907481  0.58708047    -0.06500
C2416       C  0.29457190  0.92420603  0.56153667    -0.10000
C2417       C  0.29418810  0.93609036  0.54117085    -0.26600
S2418       S  0.26576756  0.98180833  0.53140141    -0.03800
C2419       C  0.25261123  0.98085748  0.55982011    -0.17200
C2420       C  0.24882799  0.96563116  0.57756514    -0.15200
H2421       H  0.25198618  0.93512432  0.60178571     0.20100
H2422       H  0.28668293  0.96201720  0.51369676     0.16200
H2423       H  0.30455209  0.94191486  0.52459434     0.18700
H2424       H  0.24169821  0.96334343  0.59708815     0.12000
C2425       C  0.40557821  0.99200803  0.73145875     0.15900
C2426       C  0.40483759  0.00486946  0.75024075    -0.33100
C2427       C  0.42237326  0.01890202  0.76199574     0.20300
C2428       C  0.43986979  0.01987022  0.75580098     0.02500
C2429       C  0.44067048  0.00725976  0.73649797    -0.22800
C2430       C  0.42313116  0.99341270  0.72433563     0.11700
S2431       S  0.38584644  0.97392075  0.71522292    -0.06500
C2432       C  0.40137498  0.96845343  0.69790929    -0.10000
C2433       C  0.42084205  0.98005521  0.70478444    -0.26600
S2434       S  0.45922066  0.03683219  0.77426173    -0.03800
C2435       C  0.44363062  0.04305312  0.78973473    -0.17200
C2436       C  0.42450624  0.03239203  0.78106969    -0.15200
H2437       H  0.39115486  0.00390795  0.75557972     0.20100
H2438       H  0.45432255  0.00809126  0.73136649     0.16200
H2439       H  0.43265817  0.97887291  0.69582211     0.18700
H2440       H  0.41261651  0.03377305  0.78935147     0.12000
C2441       C  0.32920266  0.88475887  0.38711656     0.15900
C2442       C  0.34188648  0.88915405  0.40920012    -0.33100
C2443       C  0.33362701  0.88374861  0.43529398     0.20300
C2444       C  0.31371591  0.87452536  0.43941917     0.02500
C2445       C  0.30104716  0.86961149  0.41731952    -0.22800
C2446       C  0.30928821  0.87492550  0.39128968     0.11700
S2447       S  0.33606983  0.89129446  0.35385789    -0.06500
C2448       C  0.31176402  0.88039232  0.34564752    -0.10000
C2449       C  0.29930926  0.87214462  0.36769714    -0.26600
S2450       S  0.30676331  0.87107290  0.47287822    -0.03800
C2451       C  0.33097729  0.88190612  0.48142656    -0.17200
C2452       C  0.34353909  0.88765798  0.45925699    -0.15200
H2453       H  0.35749257  0.89690357  0.40629384     0.20100
H2454       H  0.28546348  0.86246868  0.42030824     0.16200
H2455       H  0.28358678  0.86490950  0.36671414     0.18700
H2456       H  0.35925637  0.89527871  0.46058272     0.12000
C2457       C  0.37041264  0.99335190  0.24915178     0.15900
C2458       C  0.38371139  0.01235523  0.25797832    -0.33100
C2459       C  0.38701292  0.02805145  0.24087323     0.20300
C2460       C  0.37788640  0.02488420  0.21581140     0.02500
C2461       C  0.36487078  0.00598586  0.20688941    -0.22800
C2462       C  0.36115513  0.99043589  0.22426047     0.11700
S2463       S  0.36230968  0.97238856  0.26809011    -0.06500
C2464       C  0.34587297  0.95985143  0.24249970    -0.10000
C2465       C  0.34722197  0.97139445  0.22038980    -0.26600
S2466       S  0.38185818  0.04557926  0.19939695    -0.03800
C2467       C  0.39577788  0.05885364  0.22663517    -0.17200
C2468       C  0.39744785  0.04760428  0.24710764    -0.15200
H2469       H  0.39039098  0.01485217  0.27788347     0.20100
H2470       H  0.35710698  0.00356110  0.18785131     0.16200
H2471       H  0.33751458  0.96627515  0.20302989     0.18700
H2472       H  0.40441877  0.05327482  0.26653815     0.12000
C2473       C  0.20470749  0.99789377  0.71450837     0.15900
C2474       C  0.19762763  0.98485925  0.73638762    -0.33100
C2475       C  0.20165297  0.99267479  0.76274298     0.20300
C2476       C  0.21200219  0.01254661  0.76736506     0.02500
C2477       C  0.21889453  0.02561025  0.74546099    -0.22800
C2478       C  0.21508668  0.01776877  0.71910710     0.11700
S2479       S  0.20230885  0.99140218  0.68088620    -0.06500
C2480       C  0.21558284  0.01577901  0.67302425    -0.10000
C2481       C  0.22126089  0.02804932  0.69544986    -0.26600
S2482       S  0.21600614  0.01887915  0.80108475    -0.03800
C2483       C  0.20387956  0.99442637  0.80893300    -0.17200
C2484       C  0.19687460  0.98228989  0.78639539    -0.15200
H2485       H  0.18971299  0.96929208  0.73305580     0.20100
H2486       H  0.22722925  0.04116878  0.74878008     0.16200
H2487       H  0.22982070  0.04378297  0.69456010     0.18700
H2488       H  0.18911341  0.96653590  0.78718486     0.12000
C2489       C  0.30859631  0.05458831  0.91991122     0.15900
C2490       C  0.32752282  0.06855420  0.91176105    -0.33100
C2491       C  0.34323249  0.06976593  0.92677618     0.20300
C2492       C  0.34014464  0.05819883  0.94956057     0.02500
C2493       C  0.32133601  0.04486847  0.95826013    -0.22800
C2494       C  0.30577937  0.04302306  0.94256811     0.11700
S2495       S  0.28771665  0.04798939  0.90165458    -0.06500
C2496       C  0.27546832  0.02894057  0.92412348    -0.10000
C2497       C  0.28690060  0.02856103  0.94522404    -0.26600
S2498       S  0.36058407  0.05929207  0.96251878    -0.03800
C2499       C  0.37358944  0.07528790  0.93683469    -0.17200
C2500       C  0.36257871  0.07990033  0.91959043    -0.15200
H2501       H  0.32993074  0.07699435  0.89334991     0.20100
H2502       H  0.31896888  0.03517439  0.97522421     0.16200
H2503       H  0.28193487  0.01723916  0.96058533     0.18700
H2504       H  0.36809013  0.08856237  0.90124607     0.12000
C2505       C  0.20284095  0.91102050  0.07674606     0.15900
C2506       C  0.20799482  0.90929043  0.10348394    -0.33100
C2507       C  0.21636641  0.89754857  0.10790567     0.20300
C2508       C  0.21970309  0.88811625  0.08666990     0.02500
C2509       C  0.21403966  0.88940244  0.06007090    -0.22800
C2510       C  0.20547308  0.90096134  0.05571554     0.11700
S2511       S  0.19390989  0.92574086  0.06665804    -0.06500
C2512       C  0.19314435  0.91774532  0.03390251    -0.10000
C2513       C  0.19966555  0.90453499  0.03120992    -0.26600
S2514       S  0.23154566  0.87592091  0.09598442    -0.03800
C2515       C  0.23149670  0.88318111  0.12892091    -0.17200
C2516       C  0.22280823  0.89447126  0.13227297    -0.15200
H2517       H  0.20595534  0.91707681  0.12002675     0.20100
H2518       H  0.21655885  0.88204235  0.04339783     0.16200
H2519       H  0.20097410  0.89856603  0.01205409     0.18700
H2520       H  0.22183586  0.90061559  0.15145945     0.12000
C2521       C  0.48519969  0.89045708  0.65473637     0.15900
C2522       C  0.46986101  0.88774564  0.63771822    -0.33100
C2523       C  0.45930721  0.89691079  0.64495661     0.20300
C2524       C  0.46403835  0.90862012  0.66782152     0.02500
C2525       C  0.47922032  0.91111398  0.68508006    -0.22800
C2526       C  0.48956115  0.90165013  0.67807575     0.11700
S2527       S  0.49963583  0.88043520  0.64956271    -0.06500
C2528       C  0.51146378  0.89108084  0.67946780    -0.10000
C2529       C  0.50451533  0.90192683  0.69247800    -0.26600
S2530       S  0.44988302  0.91905845  0.67238513    -0.03800
C2531       C  0.43717861  0.90709135  0.64360191    -0.17200
C2532       C  0.44371553  0.89574502  0.63122620    -0.15200
H2533       H  0.46624707  0.87879880  0.61967265     0.20100
H2534       H  0.48278230  0.91999133  0.70319358     0.16200
H2535       H  0.51006490  0.90954293  0.71154223     0.18700
H2536       H  0.43753332  0.88731254  0.61290884     0.12000
C2537       C  0.64076672  0.88511079  0.59435949     0.15900
C2538       C  0.65537381  0.88543732  0.57802608    -0.33100
C2539       C  0.66837189  0.90306252  0.56528543     0.20300
C2540       C  0.66726163  0.91977784  0.56925967     0.02500
C2541       C  0.65255450  0.91940915  0.58543724    -0.22800
C2542       C  0.63918999  0.90163397  0.59749848     0.11700
S2543       S  0.62409909  0.86540962  0.61244312    -0.06500
C2544       C  0.61458027  0.87944586  0.62379458    -0.10000
C2545       C  0.62394865  0.89836607  0.61399312    -0.26600
S2546       S  0.68435309  0.93966844  0.55185663    -0.03800
C2547       C  0.69262762  0.92513727  0.53828664    -0.17200
C2548       C  0.68281144  0.90601320  0.54737786    -0.15200
H2549       H  0.65648196  0.87249246  0.57522938     0.20100
H2550       H  0.65145542  0.93235578  0.58827170     0.16200
H2551       H  0.62057585  0.90946816  0.62003523     0.18700
H2552       H  0.68573476  0.89474148  0.54063146     0.12000
C2553       C  0.56253973  0.09865509  0.83242615     0.15900
C2554       C  0.57513180  0.09520758  0.81655284    -0.33100
C2555       C  0.59485811  0.10486646  0.82366772     0.20300
C2556       C  0.60178199  0.11711790  0.84599265     0.02500
C2557       C  0.58916934  0.12068599  0.86184176    -0.22800
C2558       C  0.56943948  0.11133784  0.85431286     0.11700
S2559       S  0.53810657  0.08818436  0.82702670    -0.06500
C2560       C  0.53710651  0.10130979  0.85416464    -0.10000
C2561       C  0.55489173  0.11312534  0.86669867    -0.26600
S2562       S  0.62638625  0.12768343  0.85071190    -0.03800
C2563       C  0.62736255  0.11605370  0.82165856    -0.17200
C2564       C  0.60941553  0.10421335  0.80967135    -0.15200
H2565       H  0.56981532  0.08559405  0.79915098     0.20100
H2566       H  0.59453784  0.13052052  0.87900178     0.16200
H2567       H  0.55695432  0.12216364  0.88426914     0.18700
H2568       H  0.60720343  0.09598897  0.79115544     0.12000
C2569       C  0.61010440  0.02031018  0.76975072     0.15900
C2570       C  0.60143526  0.00149263  0.78088305    -0.33100
C2571       C  0.59259254  0.98568300  0.76294220     0.20300
C2572       C  0.59172787  0.98850024  0.73521941     0.02500
C2573       C  0.59983833  0.00734259  0.72418414    -0.22800
C2574       C  0.60937536  0.02318529  0.74200932     0.11700
S2575       S  0.62486245  0.04101800  0.78740658    -0.06500
C2576       C  0.63048156  0.05372439  0.75713627    -0.10000
C2577       C  0.62086831  0.04244034  0.73468067    -0.26600
S2578       S  0.58295225  0.96768062  0.71646222    -0.03800
C2579       C  0.58065984  0.95508357  0.74617430    -0.17200
C2580       C  0.58614246  0.96650980  0.76935767    -0.15200
H2581       H  0.60282628  0.99929162  0.80234637     0.20100
H2582       H  0.59998344  0.00955901  0.70241185     0.16200
H2583       H  0.62368723  0.04765955  0.71387179     0.18700
H2584       H  0.58701981  0.96137626  0.78946769     0.12000
C2585       C  0.77996192  0.02095018  0.23350127     0.15900
C2586       C  0.78205994  0.02309513  0.26180149    -0.33100
C2587       C  0.77374032  0.00615009  0.27763292     0.20300
C2588       C  0.76396369  0.98789664  0.26568959     0.02500
C2589       C  0.76197723  0.98574633  0.23736185    -0.22800
C2590       C  0.77014099  0.00271399  0.22151835     0.11700
S2591       S  0.78861775  0.03975726  0.21107774    -0.06500
C2592       C  0.77898618  0.02298151  0.18504418    -0.10000
C2593       C  0.76951207  0.00374773  0.19360910    -0.26600
S2594       S  0.75440252  0.96914517  0.28825602    -0.03800
C2595       C  0.76339737  0.98603588  0.31418029    -0.17200
C2596       C  0.77354041  0.00521096  0.30554803    -0.15200
H2597       H  0.78961863  0.03736285  0.27107349     0.20100
H2598       H  0.75418990  0.97148022  0.22812360     0.16200
H2599       H  0.76255192  0.99127432  0.18025037     0.18700
H2600       H  0.78001669  0.01772693  0.31888180     0.12000
C2601       C  0.77897917  0.11041199  0.92585106     0.15900
C2602       C  0.77921499  0.12479893  0.90894104    -0.33100
C2603       C  0.76194965  0.12036382  0.89530280     0.20300
C2604       C  0.74509835  0.10257858  0.89883921     0.02500
C2605       C  0.74500445  0.08804229  0.91519456    -0.22800
C2606       C  0.76236715  0.09231250  0.92832259     0.11700
S2607       S  0.79791659  0.11335240  0.94572493    -0.06500
C2608       C  0.78346034  0.08973068  0.95680463    -0.10000
C2609       C  0.76498285  0.08024837  0.94561080    -0.26600
S2610       S  0.72547435  0.10025538  0.88134699    -0.03800
C2611       C  0.74026033  0.12323341  0.86837117    -0.17200
C2612       C  0.75934155  0.13218088  0.87743578    -0.15200
H2613       H  0.79221707  0.13887640  0.90670685     0.20100
H2614       H  0.73193546  0.07404950  0.91770446     0.16200
H2615       H  0.75365237  0.06574753  0.95122877     0.18700
H2616       H  0.77071848  0.14643844  0.87100144     0.12000
C2617       C  0.65958607  0.11731052  0.55707880     0.15900
C2618       C  0.67323370  0.12474683  0.57813285    -0.33100
C2619       C  0.66619101  0.12154490  0.60489531     0.20300
C2620       C  0.64647226  0.11158716  0.61068719     0.02500
C2621       C  0.63278599  0.10425854  0.58958956    -0.22800
C2622       C  0.63985016  0.10728274  0.56277840     0.11700
S2623       S  0.66516166  0.11913198  0.52318496    -0.06500
C2624       C  0.64060466  0.10610419  0.51658348    -0.10000
C2625       C  0.62891405  0.10084547  0.53964792    -0.26600
S2626       S  0.64110631  0.10887905  0.64475358    -0.03800
C2627       C  0.66574450  0.12114705  0.65110418    -0.17200
C2628       C  0.67724683  0.12708003  0.62789336    -0.15200
H2629       H  0.68868271  0.13245072  0.57387597     0.20100
H2630       H  0.61734188  0.09630972  0.59386295     0.16200
H2631       H  0.61317048  0.09260960  0.53953518     0.18700
H2632       H  0.69299680  0.13481296  0.62779875     0.12000
C2633       C  0.47729776  0.09389043  0.32687505     0.15900
C2634       C  0.48912648  0.08544472  0.32845553    -0.33100
C2635       C  0.50461648  0.09341582  0.34703768     0.20300
C2636       C  0.50825749  0.10914876  0.36325075     0.02500
C2637       C  0.49596254  0.11710190  0.36242988    -0.22800
C2638       C  0.48039755  0.10906290  0.34395547     0.11700
S2639       S  0.45942983  0.08808189  0.30322744    -0.06500
C2640       C  0.45581784  0.10599068  0.31692787    -0.10000
C2641       C  0.46774777  0.11571821  0.33879216    -0.26600
S2642       S  0.52870095  0.11762218  0.38289685    -0.03800
C2643       C  0.53198059  0.09930620  0.36987190    -0.17200
C2644       C  0.51801969  0.08756396  0.35099307    -0.15200
H2645       H  0.48675356  0.07359455  0.31516414     0.20100
H2646       H  0.49874226  0.12939156  0.37504903     0.16200
H2647       H  0.46812461  0.12798401  0.34898692     0.18700
H2648       H  0.51783777  0.07551779  0.34042102     0.12000
C2649       C  0.49947086  0.02140530  0.49749340     0.15900
C2650       C  0.48880456  0.01382887  0.52155317    -0.33100
C2651       C  0.47125184  0.99617190  0.51986681     0.20300
C2652       C  0.46456770  0.98670754  0.49516637     0.02500
C2653       C  0.47518156  0.99432765  0.47108420    -0.22800
C2654       C  0.49285584  0.01183473  0.47284610     0.11700
S2655       S  0.52168474  0.04180881  0.49582376    -0.06500
C2656       C  0.52237155  0.03721973  0.46164014    -0.10000
C2657       C  0.50588469  0.02093549  0.45205027    -0.26600
S2658       S  0.44305124  0.96553000  0.49720262    -0.03800
C2659       C  0.44294923  0.96928715  0.53181623    -0.17200
C2660       C  0.45893114  0.98620929  0.54108569    -0.15200
H2661       H  0.49415683  0.02118544  0.54082409     0.20100
H2662       H  0.47004651  0.98675137  0.45191113     0.16200
H2663       H  0.50401053  0.01545884  0.43145653     0.18700
H2664       H  0.46131417  0.99103463  0.56203951     0.12000
C2665       C  0.70672500  0.03823754  0.38574849     0.15900
C2666       C  0.69371295  0.04388689  0.37605196    -0.33100
C2667       C  0.68925579  0.05519752  0.39317486     0.20300
C2668       C  0.69777275  0.06124889  0.41856244     0.02500
C2669       C  0.71104663  0.05578173  0.42816596    -0.22800
C2670       C  0.71512681  0.04396197  0.41127823     0.11700
S2671       S  0.71148655  0.02201889  0.36973316    -0.06500
C2672       C  0.72488114  0.02277383  0.39769528    -0.10000
C2673       C  0.72569176  0.03517141  0.41817001    -0.26600
S2674       S  0.68908494  0.07370693  0.43689144    -0.03800
C2675       C  0.67346027  0.07006321  0.41032201    -0.17200
C2676       C  0.67537404  0.06018957  0.38841003    -0.15200
H2677       H  0.68653970  0.03878680  0.35659074     0.20100
H2678       H  0.71716919  0.05974585  0.44840532     0.16200
H2679       H  0.73210251  0.03624723  0.43801811     0.18700
H2680       H  0.66628272  0.05597773  0.37040428     0.12000
C2681       C  0.54954218  0.89152816  0.94204312     0.15900
C2682       C  0.55583899  0.88414109  0.92089838    -0.33100
C2683       C  0.55230444  0.88768625  0.89398932     0.20300
C2684       C  0.54297059  0.89810235  0.88829356     0.02500
C2685       C  0.53683803  0.90558911  0.90937426    -0.22800
C2686       C  0.54032783  0.90202946  0.93619505     0.11700
S2687       S  0.55194678  0.88862814  0.97622889    -0.06500
C2688       C  0.54039775  0.90174648  0.98255355    -0.10000
C2689       C  0.53515208  0.90792925  0.95918955    -0.26600
S2690       S  0.53986866  0.90064426  0.85433055    -0.03800
C2691       C  0.55136918  0.88759596  0.84758083    -0.17200
C2692       C  0.55719287  0.88167646  0.87072660    -0.15200
H2693       H  0.56306113  0.87591199  0.92519790     0.20100
H2694       H  0.52954897  0.91375501  0.90507646     0.16200
H2695       H  0.52770751  0.91623861  0.95897426     0.18700
H2696       H  0.56468361  0.87341339  0.87056082     0.12000
C2697       C  0.38376288  0.91393752  0.16192615     0.15900
C2698       C  0.40399999  0.92258314  0.15976444    -0.33100
C2699       C  0.41145945  0.91328565  0.14363990     0.20300
C2700       C  0.39935193  0.89612394  0.13005785     0.02500
C2701       C  0.37898971  0.88789745  0.13120530    -0.22800
C2702       C  0.37148605  0.89722975  0.14749048     0.11700
S2703       S  0.37215058  0.92159375  0.18354366    -0.06500
C2704       C  0.35036176  0.90246976  0.17258502    -0.10000
C2705       C  0.35218176  0.89083265  0.15304065    -0.26600
S2706       S  0.41157790  0.88631156  0.11373826    -0.03800
C2707       C  0.43319499  0.90578743  0.12498643    -0.17200
C2708       C  0.43074679  0.91902542  0.14043812    -0.15200
H2709       H  0.41355624  0.93560518  0.17110075     0.20100
H2710       H  0.36942557  0.87446166  0.12071241     0.16200
H2711       H  0.34011864  0.87769893  0.14477323     0.18700
H2712       H  0.44251554  0.93202740  0.14947613     0.12000
C2713       C  0.53007302  0.99167408  0.23456790     0.15900
C2714       C  0.52866854  0.00323347  0.25504422    -0.33100
C2715       C  0.54604738  0.01803145  0.26639829     0.20300
C2716       C  0.56400552  0.02139644  0.25735808     0.02500
C2717       C  0.56540148  0.00958823  0.23736506    -0.22800
C2718       C  0.54805071  0.99456712  0.22644366     0.11700
S2719       S  0.51082773  0.97356070  0.21723472    -0.06500
C2720       C  0.52718874  0.96953957  0.19952433    -0.10000
C2721       C  0.54645033  0.98165471  0.20672893    -0.26600
S2722       S  0.58337490  0.04013732  0.27334677    -0.03800
C2723       C  0.56719620  0.04311067  0.29326269    -0.17200
C2724       C  0.54777345  0.03033927  0.28722370    -0.15200
H2725       H  0.51465699  0.00080985  0.26181069     0.20100
H2726       H  0.57941673  0.01198343  0.23064841     0.16200
H2727       H  0.55867638  0.98146885  0.19729292     0.18700
H2728       H  0.53559064  0.02975655  0.29795545     0.12000
C2729       C  0.67178379  0.97582877  0.11204206     0.15900
C2730       C  0.65322258  0.97176569  0.11990976    -0.33100
C2731       C  0.63733842  0.95759679  0.10528970     0.20300
C2732       C  0.63953648  0.94710160  0.08449529     0.02500
C2733       C  0.65822233  0.95068289  0.07723125    -0.22800
C2734       C  0.67433610  0.96561129  0.09112871     0.11700
S2735       S  0.69268640  0.99518706  0.12374385    -0.06500
C2736       C  0.70528092  0.98987533  0.10011308    -0.10000
C2737       C  0.69371619  0.97351776  0.08439328    -0.26600
S2738       S  0.61819399  0.93192700  0.06765007    -0.03800
C2739       C  0.60662554  0.94056522  0.08832336    -0.17200
C2740       C  0.61865138  0.95382340  0.10764269    -0.15200
H2741       H  0.65132834  0.98032822  0.13545412     0.20100
H2742       H  0.66019536  0.94312746  0.06032344     0.16200
H2743       H  0.69896326  0.96885337  0.06731126     0.18700
H2744       H  0.61407673  0.96107939  0.12201132     0.12000
C2745       C  0.49062195  0.02245069  0.99158717     0.15900
C2746       C  0.49460343  0.01578310  0.01576770    -0.33100
C2747       C  0.48936161  0.99617548  0.01708416     0.20300
C2748       C  0.48068401  0.98380124  0.99518138     0.02500
C2749       C  0.47638684  0.99041090  0.97112161    -0.22800
C2750       C  0.48158454  0.01005234  0.96982091     0.11700
S2751       S  0.49554513  0.04559504  0.98647597    -0.06500
C2752       C  0.48491565  0.03853946  0.95481255    -0.10000
C2753       C  0.47831496  0.01924626  0.94845297    -0.26600
S2754       S  0.47716958  0.96102536  0.99982955    -0.03800
C2755       C  0.48737143  0.96824638  0.03167932    -0.17200
C2756       C  0.49291105  0.98722110  0.03835694    -0.15200
H2757       H  0.50161514  0.02549962  0.03273435     0.20100
H2758       H  0.46954995  0.98074138  0.95406453     0.16200
H2759       H  0.47066572  0.01212904  0.92995841     0.18700
H2760       H  0.50038301  0.99444709  0.05690828     0.12000
C2761       C  0.42410277  0.18989125  0.79897790     0.15900
C2762       C  0.43267062  0.17815252  0.79993178    -0.33100
C2763       C  0.42541803  0.16294762  0.81901058     0.20300
C2764       C  0.41040760  0.15967746  0.83656130     0.02500
C2765       C  0.40131953  0.17093726  0.83486738    -0.22800
C2766       C  0.40850012  0.18607999  0.81562920     0.11700
S2767       S  0.43201453  0.21012823  0.77905671    -0.06500
C2768       C  0.41382062  0.21330115  0.79274885    -0.10000
C2769       C  0.40226752  0.19924159  0.81174248    -0.26600
S2770       S  0.40532578  0.14207820  0.86045242    -0.03800
C2771       C  0.42316420  0.13867847  0.84604321    -0.17200
C2772       C  0.43252384  0.15063630  0.82398337    -0.15200
H2773       H  0.44486238  0.18112142  0.78695108     0.20100
H2774       H  0.38959485  0.16841313  0.84853536     0.16200
H2775       H  0.39044919  0.19911301  0.82289409     0.18700
H2776       H  0.44455826  0.15099189  0.81312138     0.12000
C2777       C  0.32449972  0.17810375  0.68706460     0.15900
C2778       C  0.30963407  0.15907811  0.68174839    -0.33100
C2779       C  0.30639006  0.15295751  0.65452518     0.20300
C2780       C  0.31723990  0.16518687  0.63341289     0.02500
C2781       C  0.33213139  0.18419406  0.63874108    -0.22800
C2782       C  0.33550884  0.19026132  0.66598617     0.11700
S2783       S  0.33092765  0.18838557  0.71869395    -0.06500
C2784       C  0.34879335  0.20923831  0.70333123    -0.10000
C2785       C  0.34944525  0.20807573  0.67518509    -0.26600
S2786       S  0.31098335  0.15483764  0.60179628    -0.03800
C2787       C  0.29379950  0.13367998  0.61730503    -0.17200
C2788       C  0.29296404  0.13492021  0.64541832    -0.15200
H2789       H  0.30106135  0.14942014  0.69810390     0.20100
H2790       H  0.34079909  0.19379734  0.62240197     0.16200
H2791       H  0.35961826  0.21970376  0.66204928     0.18700
H2792       H  0.28313850  0.12312573  0.65862701     0.12000
C2793       C  0.22579505  0.06917334  0.98879388     0.15900
C2794       C  0.23457773  0.08942932  0.99108912    -0.33100
C2795       C  0.22677610  0.09685914  0.00999316     0.20300
C2796       C  0.21081036  0.08470275  0.02585468     0.02500
C2797       C  0.20220370  0.06435640  0.02391508    -0.22800
C2798       C  0.21014553  0.05689202  0.00510018     0.11700
S2799       S  0.23260675  0.05748410  0.96605539    -0.06500
C2800       C  0.21454199  0.03569423  0.97901585    -0.10000
C2801       C  0.20374154  0.03758184  0.99978319    -0.26600
S2802       S  0.20308373  0.09681704  0.04661982    -0.03800
C2803       C  0.22176165  0.11845472  0.03401390    -0.17200
C2804       C  0.23321957  0.11614962  0.01477225    -0.15200
H2805       H  0.24684215  0.09900836  0.97841894     0.20100
H2806       H  0.18976411  0.05478112  0.03630333     0.16200
H2807       H  0.19148688  0.02550492  0.00977224     0.18700
H2808       H  0.24547438  0.12800712  0.00444023     0.12000
C2809       C  0.30200291  0.22141405  0.92153020     0.15900
C2810       C  0.30926314  0.22450970  0.89493554    -0.33100
C2811       C  0.32951784  0.23460849  0.89161233     0.20300
C2812       C  0.34207011  0.24156230  0.91366261     0.02500
C2813       C  0.33481142  0.23805761  0.94029066    -0.22800
C2814       C  0.31455051  0.22775636  0.94362527     0.11700
S2815       S  0.27788942  0.21030625  0.92995448    -0.06500
C2816       C  0.28485343  0.21382086  0.96357061    -0.10000
C2817       C  0.30475769  0.22316401  0.96780923    -0.26600
S2818       S  0.36616808  0.25459793  0.90507809    -0.03800
C2819       C  0.35919205  0.25011004  0.87147256    -0.17200
C2820       C  0.33927428  0.23925910  0.86741229    -0.15200
H2821       H  0.29956530  0.21948684  0.87757866     0.20100
H2822       H  0.34450610  0.24332854  0.95763725     0.16200
H2823       H  0.31168620  0.22680744  0.98760336     0.18700
H2824       H  0.33227413  0.23543420  0.84767332     0.12000
C2825       C  0.34143382  0.16969102  0.16072486     0.15900
C2826       C  0.33363562  0.17267406  0.13686770    -0.33100
C2827       C  0.31496190  0.17020965  0.13833354     0.20300
C2828       C  0.30445572  0.16474396  0.16244461     0.02500
C2829       C  0.31220904  0.16163985  0.18628449    -0.22800
C2830       C  0.33102030  0.16441417  0.18491260     0.11700
S2831       S  0.36392362  0.17229310  0.16302539    -0.06500
C2832       C  0.35943726  0.16642625  0.19706542    -0.10000
C2833       C  0.34131929  0.16256179  0.20599245    -0.26600
S2834       S  0.28257151  0.16358438  0.16056323    -0.03800
C2835       C  0.28772309  0.17087831  0.12703169    -0.17200
C2836       C  0.30536819  0.17364279  0.11777986    -0.15200
H2837       H  0.34190883  0.17706546  0.11811906     0.20100
H2838       H  0.30409879  0.15765336  0.20517642     0.16200
H2839       H  0.33589353  0.15835369  0.22655062     0.18700
H2840       H  0.31131323  0.17892626  0.09770038     0.12000
C2841       C  0.38456879  0.38470675  0.73966774     0.15900
C2842       C  0.37727907  0.39590185  0.72777778    -0.33100
C2843       C  0.36812592  0.40307003  0.74491639     0.20300
C2844       C  0.36693405  0.39988756  0.77278152     0.02500
C2845       C  0.37453006  0.38901780  0.78470703    -0.22800
C2846       C  0.38295572  0.38119218  0.76746768     0.11700
S2847       S  0.39345673  0.37220086  0.72202307    -0.06500
C2848       C  0.39427383  0.36161446  0.75229208    -0.10000
C2849       C  0.38849730  0.36797404  0.77476949    -0.26600
S2850       S  0.35321185  0.40766018  0.78959605    -0.03800
C2851       C  0.34875416  0.41503608  0.75878165    -0.17200
C2852       C  0.35770522  0.41175943  0.73680638    -0.15200
H2853       H  0.37762555  0.39789676  0.70593401     0.20100
H2854       H  0.37278581  0.38571067  0.80626498     0.16200
H2855       H  0.38718254  0.36220499  0.79515322     0.18700
H2856       H  0.35526512  0.41402389  0.71574872     0.12000
C2857       C  0.21799033  0.24567912  0.27038314     0.15900
C2858       C  0.21894616  0.24879074  0.24213579    -0.33100
C2859       C  0.21953983  0.23485105  0.22534208     0.20300
C2860       C  0.21944971  0.21869643  0.23639959     0.02500
C2861       C  0.21846113  0.21556768  0.26464857    -0.22800
C2862       C  0.21767732  0.22941041  0.28142713     0.11700
S2863       S  0.21626252  0.26043824  0.29381999    -0.06500
C2864       C  0.21487438  0.24448739  0.31896808    -0.10000
C2865       C  0.21598529  0.22865888  0.30939683    -0.26600
S2866       S  0.22102376  0.20386414  0.21291553    -0.03800
C2867       C  0.22167038  0.21942935  0.18768689    -0.17200
C2868       C  0.22061754  0.23528793  0.19730481    -0.15200
H2869       H  0.21906802  0.26146018  0.23363096     0.20100
H2870       H  0.21825731  0.20285783  0.27315245     0.16200
H2871       H  0.21472178  0.21685480  0.32198568     0.18700
H2872       H  0.22136131  0.24683688  0.18464729     0.12000
C2873       C  0.21058201  0.17205267  0.51145007     0.15900
C2874       C  0.20692632  0.15571308  0.52717011    -0.33100
C2875       C  0.21735992  0.14619389  0.52085020     0.20300
C2876       C  0.23093289  0.15279304  0.49998269     0.02500
C2877       C  0.23456135  0.16906968  0.48431835    -0.22800
C2878       C  0.22406007  0.17846877  0.49048427     0.11700
S2879       S  0.19928321  0.18549089  0.51535728    -0.06500
C2880       C  0.21285410  0.19985669  0.48840687    -0.10000
C2881       C  0.22536952  0.19431138  0.47717227    -0.26600
S2882       S  0.24226647  0.13951902  0.49559462    -0.03800
C2883       C  0.22851492  0.12470922  0.52201396    -0.17200
C2884       C  0.21580910  0.12995687  0.53349803    -0.15200
H2885       H  0.19634706  0.15058461  0.54348511     0.20100
H2886       H  0.24508241  0.17415187  0.46792689     0.16200
H2887       H  0.23484037  0.20142079  0.45997143     0.18700
H2888       H  0.20620388  0.12248540  0.55043322     0.12000
C2889       C  0.20159981  0.32630765  0.57233548     0.15900
C2890       C  0.20156793  0.34034802  0.58969111    -0.33100
C2891       C  0.21901882  0.35308976  0.60312226     0.20300
C2892       C  0.23577696  0.35208676  0.59906937     0.02500
C2893       C  0.23566388  0.33780217  0.58229676    -0.22800
C2894       C  0.21820643  0.32489686  0.56926018     0.11700
S2895       S  0.18243627  0.31025620  0.55269862    -0.06500
C2896       C  0.19686356  0.30125477  0.54090224    -0.10000
C2897       C  0.21547604  0.31037691  0.55167778    -0.26600
S2898       S  0.25559806  0.36903281  0.61656468    -0.03800
C2899       C  0.24109182  0.37722345  0.63032912    -0.17200
C2900       C  0.22192838  0.36738283  0.62138397    -0.15200
H2901       H  0.18858832  0.34138687  0.59244755     0.20100
H2902       H  0.24867687  0.33684184  0.57942406     0.16200
H2903       H  0.22676656  0.30723551  0.54581595     0.18700
H2904       H  0.21068550  0.37029216  0.62829757     0.12000
C2905       C  0.33271202  0.46170646  0.89159331     0.15900
C2906       C  0.34626603  0.46955868  0.91289969    -0.33100
C2907       C  0.33951990  0.46328389  0.93954220     0.20300
C2908       C  0.32022961  0.44974146  0.94477406     0.02500
C2909       C  0.30676041  0.44186601  0.92353212    -0.22800
C2910       C  0.31344135  0.44823380  0.89700173     0.11700
S2911       S  0.33773588  0.46706760  0.85765982    -0.06500
C2912       C  0.31358096  0.45088717  0.85081808    -0.10000
C2913       C  0.30245863  0.44214127  0.87386868    -0.26600
S2914       S  0.31485693  0.44409591  0.97842518    -0.03800
C2915       C  0.33886976  0.46019989  0.98569596    -0.17200
C2916       C  0.35029862  0.46931157  0.96296311    -0.15200
H2917       H  0.36136650  0.48009107  0.90891989     0.20100
H2918       H  0.29168181  0.43125745  0.92751008     0.16200
H2919       H  0.28709808  0.43144643  0.87370603     0.18700
H2920       H  0.36569691  0.47985321  0.96354310     0.12000
C2921       C  0.26586296  0.32348952  0.08694111     0.15900
C2922       C  0.27031036  0.34217955  0.09550872    -0.33100
C2923       C  0.28445168  0.35825404  0.08061607     0.20300
C2924       C  0.29315802  0.35571069  0.05773751     0.02500
C2925       C  0.28829929  0.33716588  0.04878779    -0.22800
C2926       C  0.27486452  0.32128950  0.06417647     0.11700
S2927       S  0.25141668  0.30210747  0.10415048    -0.06500
C2928       C  0.25845861  0.29057173  0.08093775    -0.10000
C2929       C  0.27056677  0.30256079  0.06057369    -0.26600
S2930       S  0.31176820  0.37654829  0.04451493    -0.03800
C2931       C  0.30811699  0.38904390  0.07009874    -0.17200
C2932       C  0.29290660  0.37756838  0.08766270    -0.15200
H2933       H  0.26398167  0.34414970  0.11387237     0.20100
H2934       H  0.29570970  0.33524385  0.03161719     0.16200
H2935       H  0.27678983  0.29794184  0.04465030     0.18700
H2936       H  0.28946225  0.38284298  0.10592543     0.12000
C2937       C  0.45454391  0.35457122  0.56979483     0.15900
C2938       C  0.45762874  0.35581488  0.59807980    -0.33100
C2939       C  0.44168913  0.34395016  0.61484475     0.20300
C2940       C  0.42356619  0.33147346  0.60376222     0.02500
C2941       C  0.42050567  0.33023890  0.57559643    -0.22800
C2942       C  0.43639968  0.34197396  0.55889528     0.11700
S2943       S  0.47161521  0.36842615  0.54606478    -0.06500
C2944       C  0.45410334  0.35710134  0.52125320    -0.10000
C2945       C  0.43610322  0.34316426  0.53104678    -0.26600
S2946       S  0.40633489  0.31739475  0.62693152    -0.03800
C2947       C  0.42366634  0.32808511  0.65206070    -0.17200
C2948       C  0.44179854  0.34226714  0.64276950    -0.15200
H2949       H  0.47180819  0.36557880  0.60661022     0.20100
H2950       H  0.40634275  0.32042134  0.56705501     0.16200
H2951       H  0.42319580  0.33524304  0.51864952     0.18700
H2952       H  0.45460172  0.34989731  0.65543070     0.12000
C2953       C  0.42315135  0.28017365  0.32852816     0.15900
C2954       C  0.41428360  0.26313334  0.31270957    -0.33100
C2955       C  0.42037761  0.24940037  0.31670487     0.20300
C2956       C  0.43487766  0.25271355  0.33527446     0.02500
C2957       C  0.44335520  0.26945185  0.35149341    -0.22800
C2958       C  0.43705068  0.28295899  0.34784200     0.11700
S2959       S  0.41841026  0.29899833  0.32636081    -0.06500
C2960       C  0.43488067  0.31034523  0.35231891    -0.10000
C2961       C  0.44357128  0.30003702  0.36181272    -0.26600
S2962       S  0.44132469  0.23515827  0.33586543    -0.03800
C2963       C  0.42402618  0.22283175  0.31125732    -0.17200
C2964       C  0.41379464  0.23201974  0.30318399    -0.15200
H2965       H  0.40326197  0.26076803  0.29780507     0.20100
H2966       H  0.45453730  0.27192950  0.36618612     0.16200
H2967       H  0.45432301  0.30494266  0.37790802     0.18700
H2968       H  0.40262625  0.22659571  0.28765373     0.12000
C2969       C  0.42146843  0.42864402  0.27368012     0.15900
C2970       C  0.40720534  0.42741507  0.25568605    -0.33100
C2971       C  0.41079618  0.44440711  0.24200150     0.20300
C2972       C  0.42784966  0.46191448  0.24605746     0.02500
C2973       C  0.44193499  0.46326477  0.26465216    -0.22800
C2974       C  0.43836730  0.44618780  0.27828160     0.11700
S2975       S  0.42012574  0.40938565  0.29103487    -0.06500
C2976       C  0.44254601  0.42502019  0.30490027    -0.10000
C2977       C  0.45047985  0.44425392  0.29649596    -0.26600
S2978       S  0.43017517  0.48040167  0.22552259    -0.03800
C2979       C  0.40782335  0.46440370  0.21170466    -0.17200
C2980       C  0.39911624  0.44582070  0.22262879    -0.15200
H2981       H  0.39406355  0.41368381  0.25202528     0.20100
H2982       H  0.45529444  0.47689009  0.26780633     0.16200
H2983       H  0.46438424  0.45609781  0.30314715     0.18700
H2984       H  0.38545365  0.43373299  0.21571067     0.12000
C2985       C  0.34447923  0.31064965  0.45080913     0.15900
C2986       C  0.32598270  0.30612370  0.45971124    -0.33100
C2987       C  0.31001098  0.29300705  0.44421100     0.20300
C2988       C  0.31210183  0.28412385  0.42124715     0.02500
C2989       C  0.33073349  0.28841823  0.41252151    -0.22800
C2990       C  0.34690092  0.30211424  0.42767231     0.11700
S2991       S  0.36551351  0.32854712  0.46461698    -0.06500
C2992       C  0.37797885  0.32493075  0.43885271    -0.10000
C2993       C  0.36626040  0.31017234  0.42083879    -0.26600
S2994       S  0.29063267  0.26974358  0.40430472    -0.03800
C2995       C  0.27914993  0.27662648  0.42787949    -0.17200
C2996       C  0.29126833  0.28869685  0.44814256    -0.15200
H2997       H  0.32418238  0.31339868  0.47714069     0.20100
H2998       H  0.33259970  0.28215682  0.39402290     0.16200
H2999       H  0.37144912  0.30683064  0.40240511     0.18700
H3000       H  0.28671045  0.29478406  0.46432116     0.12000
C3001       C  0.50681328  0.42935041  0.84330739     0.15900
C3002       C  0.49163987  0.41723617  0.82571088    -0.33100
C3003       C  0.48252258  0.39706322  0.83001908     0.20300
C3004       C  0.48807367  0.38927538  0.85116213     0.02500
C3005       C  0.50330680  0.40140921  0.86876325    -0.22800
C3006       C  0.51262232  0.42159151  0.86419657     0.11700
S3007       S  0.51986840  0.45414559  0.84108128    -0.06500
C3008       C  0.53362653  0.45411762  0.86821265    -0.10000
C3009       C  0.52810337  0.43575837  0.87851468    -0.26600
S3010       S  0.47516543  0.36438874  0.85279927    -0.03800
C3011       C  0.46235577  0.36443752  0.82440128    -0.17200
C3012       C  0.46786190  0.38291701  0.81457026    -0.15200
H3013       H  0.48726692  0.42327138  0.80917744     0.20100
H3014       H  0.50784601  0.39537275  0.88509658     0.16200
H3015       H  0.53504221  0.43295185  0.89553926     0.18700
H3016       H  0.46152368  0.38584584  0.79693023     0.12000
C3017       C  0.48560717  0.51470081  0.03430392     0.15900
C3018       C  0.50361666  0.51617776  0.02956477    -0.33100
C3019       C  0.50926814  0.51686684  0.00243886     0.20300
C3020       C  0.49779972  0.51644915  0.98085664     0.02500
C3021       C  0.47992572  0.51531298  0.98560722    -0.22800
C3022       C  0.47414429  0.51435509  0.01275475     0.11700
S3023       S  0.47518330  0.51170066  0.06562436    -0.06500
C3024       C  0.45509229  0.50975948  0.04939729    -0.10000
C3025       C  0.45674882  0.51179174  0.02132282    -0.26600
S3026       S  0.50720148  0.51689300  0.94941799    -0.03800
C3027       C  0.52667410  0.51747992  0.96572668    -0.17200
C3028       C  0.52581260  0.51748358  0.99388574    -0.15200
H3029       H  0.51256882  0.51619416  0.04622950     0.20100
H3030       H  0.47070219  0.51467832  0.96891883     0.16200
H3031       H  0.44536032  0.51033698  0.00769073     0.18700
H3032       H  0.53676885  0.51791774  0.00750039     0.12000
C3033       C  0.42081440  0.52277223  0.66423263     0.15900
C3034       C  0.40770486  0.50777294  0.68142892    -0.33100
C3035       C  0.38774958  0.49942425  0.67585943     0.20300
C3036       C  0.38111632  0.50541519  0.65381041     0.02500
C3037       C  0.39420975  0.52053915  0.63678571    -0.22800
C3038       C  0.41413648  0.52918055  0.64271088     0.11700
S3039       S  0.44559401  0.53507525  0.66775766    -0.06500
C3040       C  0.44693017  0.54940473  0.64045894    -0.10000
C3041       C  0.42902810  0.54456399  0.62919051    -0.26600
S3042       S  0.35634068  0.49334250  0.65047746    -0.03800
C3043       C  0.35485984  0.48046757  0.67957710    -0.17200
C3044       C  0.37274944  0.48523137  0.69082305    -0.15200
H3045       H  0.41281740  0.50299035  0.69861324     0.20100
H3046       H  0.38907631  0.52553698  0.61987090     0.16200
H3047       H  0.42702231  0.55202797  0.61208654     0.18700
H3048       H  0.37465860  0.47873662  0.70913719     0.12000
C3049       C  0.56746109  0.76599476  0.67020588     0.15900
C3050       C  0.57135577  0.75415658  0.65326376    -0.33100
C3051       C  0.56188876  0.73417245  0.65906497     0.20300
C3052       C  0.54958386  0.72641284  0.68128224     0.02500
C3053       C  0.54561370  0.73825212  0.69815238    -0.22800
C3054       C  0.55458553  0.75815193  0.69182386     0.11700
S3055       S  0.57724330  0.79048809  0.66625126    -0.06500
C3056       C  0.56341799  0.79014986  0.69350787    -0.10000
C3057       C  0.55199067  0.77192521  0.70509268    -0.26600
S3058       S  0.53944442  0.70180111  0.68476834    -0.03800
C3059       C  0.55137080  0.70185028  0.65546483    -0.17200
C3060       C  0.56284076  0.72012420  0.64401628    -0.15200
H3061       H  0.58106620  0.76021038  0.63601593     0.20100
H3062       H  0.53566801  0.73214939  0.71514108     0.16200
H3063       H  0.54255780  0.76898442  0.72249110     0.18700
H3064       H  0.57113985  0.72291932  0.62541880     0.12000
C3065       C  0.51084974  0.51788672  0.52620159     0.15900
C3066       C  0.51161515  0.50099958  0.52057764    -0.33100
C3067       C  0.50753770  0.49390493  0.49385577     0.20300
C3068       C  0.50317945  0.50329880  0.47353605     0.02500
C3069       C  0.50278343  0.52034392  0.47903507    -0.22800
C3070       C  0.50656455  0.52725037  0.50577526     0.11700
S3071       S  0.51444404  0.52850585  0.55751658    -0.06500
C3072       C  0.51015866  0.54571971  0.54270783    -0.10000
C3073       C  0.50618788  0.54318157  0.51508806    -0.26600
S3074       S  0.49698602  0.49150310  0.44307601    -0.03800
C3075       C  0.49990960  0.47348948  0.45801954    -0.17200
C3076       C  0.50592749  0.47688783  0.48494434    -0.15200
H3077       H  0.51469336  0.49342228  0.53645078     0.20100
H3078       H  0.49910983  0.52759064  0.46335615     0.16200
H3079       H  0.50321424  0.55257308  0.50236916     0.18700
H3080       H  0.50789158  0.46687758  0.49778507     0.12000
C3081       C  0.54720209  0.57937154  0.75084248     0.15900
C3082       C  0.55085608  0.57594699  0.77758212    -0.33100
C3083       C  0.55838765  0.56344083  0.78138235     0.20300
C3084       C  0.56251064  0.55498648  0.75963843     0.02500
C3085       C  0.55873771  0.55831295  0.73293362    -0.22800
C3086       C  0.55086191  0.57051804  0.72915889     0.11700
S3087       S  0.53809008  0.59410106  0.74169386    -0.06500
C3088       C  0.53872858  0.58774776  0.70841343    -0.10000
C3089       C  0.54592678  0.57519383  0.70482760    -0.26600
S3090       S  0.57243590  0.54093977  0.76861138    -0.03800
C3091       C  0.57053754  0.54621629  0.80196768    -0.17200
C3092       C  0.56278066  0.55826600  0.80573482    -0.15200
H3093       H  0.54792521  0.58268257  0.79467097     0.20100
H3094       H  0.56176959  0.55166131  0.71584010     0.16200
H3095       H  0.54771427  0.56997585  0.68530683     0.18700
H3096       H  0.56095503  0.56338032  0.82532229     0.12000
C3097       C  0.54304386  0.69085763  0.40517602     0.15900
C3098       C  0.54459170  0.69315118  0.43346900    -0.33100
C3099       C  0.53694663  0.67628504  0.44935868     0.20300
C3100       C  0.52784416  0.65799561  0.43744892     0.02500
C3101       C  0.52616162  0.65569510  0.40918125    -0.22800
C3102       C  0.53414521  0.67256859  0.39328231     0.11700
S3103       S  0.55237860  0.70954737  0.38264230    -0.06500
C3104       C  0.54443699  0.69262212  0.35675050    -0.10000
C3105       C  0.53489530  0.67344339  0.36537617    -0.26600
S3106       S  0.52020192  0.63934318  0.45980151    -0.03800
C3107       C  0.52964932  0.65628914  0.48562342    -0.17200
C3108       C  0.53802276  0.67544559  0.47717712    -0.15200
H3109       H  0.55186976  0.70746135  0.44263527     0.20100
H3110       H  0.51936248  0.64139206  0.40000198     0.16200
H3111       H  0.52927370  0.66092210  0.35208983     0.18700
H3112       H  0.54494431  0.68797512  0.49044690     0.12000
C3113       C  0.48792533  0.62106312  0.16095246     0.15900
C3114       C  0.47252176  0.60909541  0.14346240    -0.33100
C3115       C  0.46117472  0.58929012  0.15030814     0.20300
C3116       C  0.46524981  0.58176059  0.17329316     0.02500
C3117       C  0.48038448  0.59375343  0.19095324    -0.22800
C3118       C  0.49149858  0.61354801  0.18436135     0.11700
S3119       S  0.50342003  0.64545915  0.15645004    -0.06500
C3120       C  0.51440722  0.64560604  0.18685336    -0.10000
C3121       C  0.50652317  0.62755634  0.19940570    -0.26600
S3122       S  0.45077333  0.55726812  0.17731067    -0.03800
C3123       C  0.43877436  0.55706604  0.14798709    -0.17200
C3124       C  0.44569570  0.57517229  0.13586261    -0.15200
H3125       H  0.46954341  0.61495105  0.12532530     0.20100
H3126       H  0.48340712  0.58788054  0.20903715     0.16200
H3127       H  0.51143018  0.62486081  0.21865512     0.18700
H3128       H  0.44019098  0.57771685  0.11704323     0.12000
C3129       C  0.54757447  0.84514180  0.18102154     0.15900
C3130       C  0.54538552  0.83020724  0.19861541    -0.33100
C3131       C  0.55511095  0.82005884  0.19201794     0.20300
C3132       C  0.56671554  0.82467560  0.16903801     0.02500
C3133       C  0.56870283  0.83946458  0.15118342    -0.22800
C3134       C  0.55881715  0.84951472  0.15770978     0.11700
S3135       S  0.53668455  0.85891940  0.18529981    -0.06500
C3136       C  0.54699521  0.87048157  0.15501707    -0.10000
C3137       C  0.55850046  0.86400322  0.14268604    -0.26600
S3138       S  0.57755904  0.81078315  0.16510706    -0.03800
C3139       C  0.56596350  0.79835244  0.19441446    -0.17200
C3140       C  0.55448350  0.80489130  0.20645359    -0.15200
H3141       H  0.53638139  0.82656876  0.21662850     0.20100
H3142       H  0.57749393  0.84293334  0.13296611     0.16200
H3143       H  0.56593184  0.86935134  0.12342318     0.18700
H3144       H  0.54612637  0.79885786  0.22489819     0.12000
C3145       C  0.66172750  0.82834183  0.31333199     0.15900
C3146       C  0.67904677  0.84538573  0.31940537    -0.33100
C3147       C  0.68195515  0.85184422  0.34644156     0.20300
C3148       C  0.66855607  0.84164556  0.36676881     0.02500
C3149       C  0.65152053  0.82429033  0.36085516    -0.22800
C3150       C  0.64839105  0.81813126  0.33370946     0.11700
S3151       S  0.65453299  0.81885475  0.28139420    -0.06500
C3152       C  0.63331529  0.80104422  0.29583379    -0.10000
C3153       C  0.63216233  0.80247348  0.32381382    -0.26600
S3154       S  0.67389259  0.85306188  0.39763594    -0.03800
C3155       C  0.69422808  0.87192650  0.38278390    -0.17200
C3156       C  0.69680951  0.86905463  0.35561058    -0.15200
H3157       H  0.68940555  0.85369989  0.30358282     0.20100
H3158       H  0.64076728  0.81639791  0.37645266     0.16200
H3159       H  0.61991669  0.79263156  0.33634118     0.18700
H3160       H  0.70834793  0.87958838  0.34269750     0.12000
C3161       C  0.75984116  0.92039277  0.97327329     0.15900
C3162       C  0.76850468  0.94073115  0.97324395    -0.33100
C3163       C  0.76208940  0.94923815  0.99259277     0.20300
C3164       C  0.74786094  0.93798055  0.01145554     0.02500
C3165       C  0.73873713  0.91755959  0.01094997    -0.22800
C3166       C  0.74499262  0.90904342  0.99129996     0.11700
S3167       S  0.76644973  0.90750695  0.95241508    -0.06500
C3168       C  0.74859291  0.88647352  0.96739689    -0.10000
C3169       C  0.73824280  0.88949827  0.98773462    -0.26600
S3170       S  0.74348832  0.95123203  0.03486949    -0.03800
C3171       C  0.76056767  0.97216076  0.01855574    -0.17200
C3172       C  0.76916227  0.96882543  0.99622381    -0.15200
H3173       H  0.78001081  0.94957416  0.95904184     0.20100
H3174       H  0.72752317  0.90872781  0.02553687     0.16200
H3175       H  0.72674659  0.87804987  0.99969327     0.18700
H3176       H  0.78053381  0.98014840  0.98396717     0.12000
C3177       C  0.71476437  0.68343933  0.92733552     0.15900
C3178       C  0.70990436  0.66481517  0.91789110    -0.33100
C3179       C  0.69701723  0.64863233  0.93376194     0.20300
C3180       C  0.68997546  0.65098869  0.95842358     0.02500
C3181       C  0.69537207  0.66953094  0.96826288    -0.22800
C3182       C  0.70745315  0.68555086  0.95188366     0.11700
S3183       S  0.72742688  0.70476365  0.90925397    -0.06500
C3184       C  0.72208355  0.71629900  0.93466596    -0.10000
C3185       C  0.71164444  0.70426370  0.95617163    -0.26600
S3186       S  0.67214953  0.62993385  0.97254549    -0.03800
C3187       C  0.67392389  0.61765921  0.94494077    -0.17200
C3188       C  0.68797212  0.62939315  0.92607651    -0.15200
H3189       H  0.71479779  0.66294958  0.89816414     0.20100
H3190       H  0.68916745  0.67131718  0.98689452     0.16200
H3191       H  0.70634296  0.70878101  0.97337382     0.18700
H3192       H  0.68999743  0.62438867  0.90653158     0.12000
C3193       C  0.67035534  0.79795157  0.07610682     0.15900
C3194       C  0.65608998  0.79777987  0.09309287    -0.33100
C3195       C  0.64239676  0.77988477  0.10464110     0.20300
C3196       C  0.64255236  0.76286073  0.09889052     0.02500
C3197       C  0.65701763  0.76311081  0.08242237    -0.22800
C3198       C  0.67103001  0.78105387  0.07164127     0.11700
S3199       S  0.68749606  0.81775538  0.05844987    -0.06500
C3200       C  0.69614348  0.80320813  0.04618131    -0.10000
C3201       C  0.68602118  0.78408976  0.05499226    -0.26600
S3202       S  0.62479633  0.74265488  0.11481763    -0.03800
C3203       C  0.61762205  0.75738698  0.13055885    -0.17200
C3204       C  0.62817167  0.77685001  0.12301943    -0.15200
H3205       H  0.65569828  0.81098307  0.09716472     0.20100
H3206       H  0.65743018  0.74991216  0.07836029     0.16200
H3207       H  0.68862419  0.77266742  0.04790656     0.18700
H3208       H  0.62610324  0.78827743  0.13147108     0.12000
C3209       C  0.65614361  0.83219525  0.85871464     0.15900
C3210       C  0.64238746  0.83775390  0.85284101    -0.33100
C3211       C  0.63781494  0.83833916  0.82542499     0.20300
C3212       C  0.64646544  0.83366720  0.80456098     0.02500
C3213       C  0.66021208  0.82800850  0.81043840    -0.22800
C3214       C  0.66477111  0.82740225  0.83794257     0.11700
S3215       S  0.66390454  0.83084418  0.89072900    -0.06500
C3216       C  0.67899248  0.82376478  0.87597144    -0.10000
C3217       C  0.67781872  0.82247628  0.84774020    -0.26600
S3218       S  0.63897172  0.83577534  0.77258540    -0.03800
C3219       C  0.62403729  0.84300587  0.78770785    -0.17200
C3220       C  0.62497742  0.84358967  0.81592728    -0.15200
H3221       H  0.63559982  0.84156390  0.86892998     0.20100
H3222       H  0.66712239  0.82435081  0.79434414     0.16200
H3223       H  0.68623557  0.81831128  0.83495611     0.18700
H3224       H  0.61682141  0.84791321  0.82898400     0.12000
C3225       C  0.75160526  0.77691822  0.77657245     0.15900
C3226       C  0.74839658  0.77609975  0.74845830    -0.33100
C3227       C  0.76445578  0.78181296  0.73138794     0.20300
C3228       C  0.78280766  0.78779531  0.74192249     0.02500
C3229       C  0.78603165  0.78872276  0.77003709    -0.22800
C3230       C  0.77001741  0.78316988  0.78711316     0.11700
S3231       S  0.73433358  0.77209218  0.80043910    -0.06500
C3232       C  0.75219475  0.77907761  0.82487600    -0.10000
C3233       C  0.77041765  0.78420019  0.81498121    -0.26600
S3234       S  0.80004120  0.79241555  0.71802769    -0.03800
C3235       C  0.78239062  0.78630245  0.69347201    -0.17200
C3236       C  0.76417889  0.78125284  0.70349152    -0.15200
H3237       H  0.73404140  0.77134078  0.74027055     0.20100
H3238       H  0.80039168  0.79352853  0.77822949     0.16200
H3239       H  0.78348565  0.78997851  0.82721881     0.18700
H3240       H  0.75115813  0.77587651  0.69122444     0.12000
C3241       C  0.77058421  0.83945522  0.49568480     0.15900
C3242       C  0.77416976  0.85507930  0.47843470    -0.33100
C3243       C  0.76540186  0.86617220  0.48500640     0.20300
C3244       C  0.75344122  0.86175866  0.50757931     0.02500
C3245       C  0.75008085  0.84634069  0.52497933    -0.22800
C3246       C  0.75896213  0.83537988  0.51854879     0.11700
S3247       S  0.77994906  0.82429455  0.49158042    -0.06500
C3248       C  0.76836531  0.81258104  0.52128191    -0.10000
C3249       C  0.75772622  0.82009995  0.53333520    -0.26600
S3250       S  0.74334692  0.87623446  0.51135352    -0.03800
C3251       C  0.75550601  0.88857352  0.48236688    -0.17200
C3252       C  0.76687696  0.88177296  0.47064977    -0.15200
H3253       H  0.78336555  0.85842929  0.46067066     0.20100
H3254       H  0.74087559  0.84298526  0.54273757     0.16200
H3255       H  0.74976093  0.81486344  0.55224660     0.18700
H3256       H  0.77523187  0.88751771  0.45213495     0.12000
C3257       C  0.67437096  0.73603105  0.59958429     0.15900
C3258       C  0.65523467  0.72900218  0.60891467    -0.33100
C3259       C  0.63987359  0.71784221  0.59077354     0.20300
C3260       C  0.64346430  0.71461255  0.56423917     0.02500
C3261       C  0.66248526  0.72195816  0.55482694    -0.22800
C3262       C  0.67771482  0.73227674  0.57321325     0.11700
S3263       S  0.69500531  0.74719447  0.61929298    -0.06500
C3264       C  0.70794241  0.74608976  0.59184919    -0.10000
C3265       C  0.69681639  0.73795066  0.56876025    -0.26600
S3266       S  0.62326587  0.69870260  0.54640858    -0.03800
C3267       C  0.60970578  0.69586796  0.57503930    -0.17200
C3268       C  0.62040106  0.70711286  0.59705267    -0.15200
H3269       H  0.65241622  0.73101493  0.62985968     0.20100
H3270       H  0.66525536  0.71858096  0.53456601     0.16200
H3271       H  0.70226845  0.73516152  0.55011792     0.18700
H3272       H  0.61450603  0.70605684  0.61725223     0.12000
C3273       C  0.63876164  0.54253494  0.07588556     0.15900
C3274       C  0.63650465  0.54147688  0.10433146    -0.33100
C3275       C  0.65200622  0.55541640  0.11998344     0.20300
C3276       C  0.66887364  0.56961831  0.10757326     0.02500
C3277       C  0.67114088  0.57060589  0.07929614    -0.22800
C3278       C  0.65573967  0.55675651  0.06374594     0.11700
S3279       S  0.62132279  0.52790458  0.05329559    -0.06500
C3280       C  0.63702573  0.54126127  0.02726656    -0.10000
C3281       C  0.65495437  0.55598365  0.03586910    -0.26600
S3282       S  0.68616865  0.58505840  0.12940286    -0.03800
C3283       C  0.67082568  0.57232827  0.15601927    -0.17200
C3284       C  0.65295452  0.55692753  0.14801774    -0.15200
H3285       H  0.62320362  0.53043314  0.11377224     0.20100
H3286       H  0.68433414  0.58181369  0.06981451     0.16200
H3287       H  0.66630611  0.56631810  0.02254398     0.18700
H3288       H  0.64164377  0.54710007  0.16180310     0.12000
C3289       C  0.58034962  0.48450947  0.36548917     0.15900
C3290       C  0.60067734  0.49671898  0.36558618    -0.33100
C3291       C  0.60851913  0.51419332  0.35062326     0.20300
C3292       C  0.59658768  0.51925485  0.33639465     0.02500
C3293       C  0.57631780  0.50734927  0.33694230    -0.22800
C3294       C  0.56852608  0.48985806  0.35160685     0.11700
S3295       S  0.56792359  0.46214866  0.38086501    -0.06500
C3296       C  0.54658526  0.46005883  0.36849920    -0.10000
C3297       C  0.54921598  0.47601550  0.35340343    -0.26600
S3298       S  0.60874596  0.53982182  0.31711122    -0.03800
C3299       C  0.63025544  0.54191815  0.32845750    -0.17200
C3300       C  0.62793557  0.52738299  0.34650619    -0.15200
H3301       H  0.60998752  0.49251838  0.37618140     0.20100
H3302       H  0.56703370  0.51124373  0.32563673     0.16200
H3303       H  0.53759914  0.47736168  0.34398572     0.18700
H3304       H  0.63977079  0.52585027  0.35469769     0.12000
C3305       C  0.75435474  0.65435412  0.42285105     0.15900
C3306       C  0.75493614  0.66161085  0.44904597    -0.33100
C3307       C  0.76797681  0.68144793  0.45369045     0.20300
C3308       C  0.77974750  0.69363208  0.43312148     0.02500
C3309       C  0.77947576  0.68627167  0.40709904    -0.22800
C3310       C  0.76660929  0.66637685  0.40255169     0.11700
S3311       S  0.73854372  0.63108799  0.41244834    -0.06500
C3312       C  0.74880762  0.63749497  0.38049672    -0.10000
C3313       C  0.76371565  0.65671564  0.37838422    -0.26600
S3314       S  0.79372208  0.71751366  0.44253587    -0.03800
C3315       C  0.78403178  0.71085227  0.47468455    -0.17200
C3316       C  0.77057559  0.69122613  0.47768470    -0.15200
H3317       H  0.74541750  0.65227925  0.46499573     0.20100
H3318       H  0.78867322  0.69569734  0.39097460     0.16200
H3319       H  0.77132237  0.66358038  0.35970991     0.18700
H3320       H  0.76287807  0.68455338  0.49638503     0.12000
C3321       C  0.61751535  0.62246955  0.28777004     0.15900
C3322       C  0.61031282  0.63372723  0.29943756    -0.33100
C3323       C  0.59789990  0.63760366  0.28367365     0.20300
C3324       C  0.59234515  0.63004321  0.25771237     0.02500
C3325       C  0.59922346  0.61835629  0.24623388    -0.22800
C3326       C  0.61217988  0.61495558  0.26172558     0.11700
S3327       S  0.63519935  0.61914603  0.30201461    -0.06500
C3328       C  0.63588611  0.60775110  0.27251994    -0.10000
C3329       C  0.62251146  0.60618781  0.25294783    -0.26600
S3330       S  0.57911399  0.63844136  0.24076888    -0.03800
C3331       C  0.58125001  0.65239996  0.26881187    -0.17200
C3332       C  0.59165484  0.65044399  0.29008786    -0.15200
H3333       H  0.61517174  0.64022260  0.31932642     0.20100
H3334       H  0.59557423  0.61314722  0.22553064     0.16200
H3335       H  0.62166697  0.60062299  0.23260556     0.18700
H3336       H  0.59580775  0.65919113  0.30838694     0.12000
C3337       C  0.82449454  0.56313248  0.32261474     0.15900
C3338       C  0.80923251  0.56060196  0.30543795    -0.33100
C3339       C  0.80019495  0.57160887  0.31083994     0.20300
C3340       C  0.80644586  0.58491285  0.33198788     0.02500
C3341       C  0.82146997  0.58719313  0.34944304    -0.22800
C3342       C  0.83017348  0.57583848  0.34445015     0.11700
S3343       S  0.83717650  0.55102482  0.31964274    -0.06500
C3344       C  0.84977722  0.56261039  0.34872770    -0.10000
C3345       C  0.84452531  0.57544728  0.35969620    -0.26600
S3346       S  0.79414672  0.59740907  0.33458220    -0.03800
C3347       C  0.77992935  0.58415113  0.30747073    -0.17200
C3348       C  0.78477554  0.57088981  0.29692298    -0.15200
H3349       H  0.80450984  0.55038164  0.28872364     0.20100
H3350       H  0.82607452  0.59728191  0.36631183     0.16200
H3351       H  0.85079326  0.58394131  0.37794037     0.18700
H3352       H  0.77751872  0.56136951  0.27986648     0.12000
C3353       C  0.17103196  0.76895103  0.17305612     0.15900
C3354       C  0.15503149  0.75635374  0.15682681    -0.33100
C3355       C  0.14672506  0.73618379  0.16104597     0.20300
C3356       C  0.15378471  0.72890645  0.18094115     0.02500
C3357       C  0.16998425  0.74148452  0.19681289    -0.22800
C3358       C  0.17854203  0.76162916  0.19222441     0.11700
S3359       S  0.18318545  0.79386290  0.17118065    -0.06500
C3360       C  0.19900226  0.79449380  0.19585360    -0.10000
C3361       C  0.19469953  0.77617087  0.20511287    -0.26600
S3362       S  0.14157014  0.70402428  0.18314281    -0.03800
C3363       C  0.12717527  0.70328097  0.15634263    -0.17200
C3364       C  0.13159488  0.72154739  0.14666295    -0.15200
H3365       H  0.14940523  0.76202661  0.14142526     0.20100
H3366       H  0.17577986  0.73579431  0.21193706     0.16200
H3367       H  0.20293946  0.77362550  0.22053505     0.18700
H3368       H  0.12430989  0.72396671  0.12971890     0.12000
C3369       C  0.00250639  0.56534506  0.23652215     0.15900
C3370       C  0.98913607  0.55141788  0.25469940    -0.33100
C3371       C  0.97766892  0.55659796  0.27040276     0.20300
C3372       C  0.97932096  0.57478553  0.26793566     0.02500
C3373       C  0.99300841  0.58886773  0.25025463    -0.22800
C3374       C  0.00457867  0.58373483  0.23473709     0.11700
S3375       S  0.01692313  0.56154328  0.21447231    -0.06500
C3376       C  0.02619743  0.58515164  0.20322042    -0.10000
C3377       C  0.01833537  0.59523974  0.21593743    -0.26600
S3378       S  0.96350077  0.57794384  0.28783015    -0.03800
C3379       C  0.95484311  0.55467256  0.30009976    -0.17200
C3380       C  0.96380975  0.54506598  0.28914092    -0.15200
H3381       H  0.98755814  0.53708273  0.25627340     0.20100
H3382       H  0.99441926  0.60312576  0.24843387     0.16200
H3383       H  0.02197526  0.60998678  0.21093275     0.18700
H3384       H  0.96028980  0.53040983  0.29448926     0.12000
C3385       C  0.84243365  0.76687481  0.00358149     0.15900
C3386       C  0.82537541  0.76220695  0.98925636    -0.33100
C3387       C  0.81580098  0.77250268  0.99559695     0.20300
C3388       C  0.82276310  0.78675153  0.01549213     0.02500
C3389       C  0.84012364  0.79173366  0.02946758    -0.22800
C3390       C  0.84983751  0.78150597  0.02295257     0.11700
S3391       S  0.85549101  0.75528968  0.99970099    -0.06500
C3392       C  0.87142122  0.77044251  0.02415790    -0.10000
C3393       C  0.86670580  0.78385210  0.03455717    -0.26600
S3394       S  0.80870489  0.79732934  0.02018586    -0.03800
C3395       C  0.79365807  0.78277718  0.99449857    -0.17200
C3396       C  0.79925432  0.77025327  0.98342348    -0.15200
H3397       H  0.81972887  0.75092348  0.97391820     0.20100
H3398       H  0.84575653  0.80300948  0.04480627     0.16200
H3399       H  0.87480492  0.79428948  0.05035206     0.18700
H3400       H  0.79181782  0.76029080  0.96684548     0.12000
C3401       C  0.07330569  0.86304133  0.96464379     0.15900
C3402       C  0.05295176  0.85145648  0.96541930    -0.33100
C3403       C  0.04480524  0.83559695  0.98351342     0.20300
C3404       C  0.05645720  0.83160327  0.00027231     0.02500
C3405       C  0.07682967  0.84280509  0.99885194    -0.22800
C3406       C  0.08496750  0.85857155  0.98060727     0.11700
S3407       S  0.08589631  0.88356373  0.94531713    -0.06500
C3408       C  0.10718418  0.88588483  0.95817596    -0.10000
C3409       C  0.10444508  0.87147835  0.97672416    -0.26600
S3410       S  0.04379598  0.81302183  0.02278293    -0.03800
C3411       C  0.02251692  0.81015624  0.00898552    -0.17200
C3412       C  0.02529695  0.82309443  0.98805899    -0.15200
H3413       H  0.04384952  0.85491040  0.95288106     0.20100
H3414       H  0.08593153  0.83964099  0.01185950     0.16200
H3415       H  0.11605854  0.87070356  0.98717887     0.18700
H3416       H  0.01369202  0.82391409  0.97765997     0.12000
C3417       C  0.83063810  0.68072813  0.13813527     0.15900
C3418       C  0.81186535  0.66561531  0.14420600    -0.33100
C3419       C  0.80627929  0.66251349  0.17169313     0.20300
C3420       C  0.81872503  0.67379347  0.19229534     0.02500
C3421       C  0.83752829  0.68871111  0.18624738    -0.22800
C3422       C  0.84308049  0.69187408  0.15881265     0.11700
S3423       S  0.84035831  0.68726055  0.10611043    -0.06500
C3424       C  0.86139923  0.70515329  0.12092955    -0.10000
C3425       C  0.86065668  0.70578550  0.14910539    -0.26600
S3426       S  0.80892430  0.66805127  0.22427563    -0.03800
C3427       C  0.78778479  0.65028004  0.20967571    -0.17200
C3428       C  0.78856825  0.64894794  0.18157378    -0.15200
H3429       H  0.80199026  0.65679485  0.12824778     0.20100
H3430       H  0.84735419  0.69761120  0.20219503     0.16200
H3431       H  0.87249075  0.71586205  0.16198710     0.18700
H3432       H  0.77666868  0.63869778  0.16893040     0.12000
C3433       C  0.03659907  0.73381225  0.08533384     0.15900
C3434       C  0.05019620  0.72878786  0.09497304    -0.33100
C3435       C  0.05390737  0.71643957  0.07868085     0.20300
C3436       C  0.04500100  0.70998267  0.05356012     0.02500
C3437       C  0.03190522  0.71540688  0.04367876    -0.22800
C3438       C  0.02765615  0.72704659  0.06033583     0.11700
S3439       S  0.02778915  0.74628294  0.10336648    -0.06500
C3440       C  0.01158740  0.74162560  0.07719500    -0.10000
C3441       C  0.01341193  0.73149420  0.05562000    -0.26600
S3442       S  0.04885293  0.69287044  0.03862861    -0.03800
C3443       C  0.06239584  0.69410039  0.06658593    -0.17200
C3444       C  0.06418551  0.70747040  0.08613457    -0.15200
H3445       H  0.05662732  0.73325721  0.11497466     0.20100
H3446       H  0.02430135  0.70966582  0.02464152     0.16200
H3447       H  0.00401932  0.72672346  0.03791303     0.18700
H3448       H  0.07085713  0.70898732  0.10589384     0.12000
C3449       C  0.87433744  0.54691316  0.61390438     0.15900
C3450       C  0.87830910  0.53772428  0.59247418    -0.33100
C3451       C  0.87658551  0.54303874  0.56568395     0.20300
C3452       C  0.87107288  0.55677744  0.56043670     0.02500
C3453       C  0.86718921  0.56597512  0.58180198    -0.22800
C3454       C  0.86894344  0.56071608  0.60850112     0.11700
S3455       S  0.87519280  0.54244108  0.64794575    -0.06500
C3456       C  0.86790405  0.55915189  0.65484765    -0.10000
C3457       C  0.86536709  0.56781921  0.63177227    -0.26600
S3458       S  0.87017626  0.56152551  0.52663496    -0.03800
C3459       C  0.87775185  0.54515136  0.51929796    -0.17200
C3460       C  0.88038551  0.53627673  0.54214874    -0.15200
H3461       H  0.88258826  0.52695802  0.59648431     0.20100
H3462       H  0.86299194  0.57680234  0.57779114     0.16200
H3463       H  0.86079366  0.57859713  0.63195820     0.18700
H3464       H  0.88533160  0.52579291  0.54161246     0.12000
C3465       C  0.73292411  0.55820529  0.80941575     0.15900
C3466       C  0.71281756  0.55136578  0.81007511    -0.33100
C3467       C  0.70580001  0.55883702  0.83026561     0.20300
C3468       C  0.71822708  0.57238331  0.84902896     0.02500
C3469       C  0.73832662  0.57969426  0.84775129    -0.22800
C3470       C  0.74533144  0.57233401  0.82754484     0.11700
S3471       S  0.74438050  0.55012847  0.78790781    -0.06500
C3472       C  0.76613251  0.56636239  0.80313516    -0.10000
C3473       C  0.76434011  0.57727284  0.82373666    -0.26600
S3474       S  0.70680168  0.57817898  0.87362961    -0.03800
C3475       C  0.68500149  0.56260132  0.85813563    -0.17200
C3476       C  0.68670289  0.55344085  0.83510209    -0.15200
H3477       H  0.70303069  0.54038114  0.79592551     0.20100
H3478       H  0.74805889  0.59031347  0.86234085     0.16200
H3479       H  0.77633794  0.58800140  0.83577284     0.18700
H3480       H  0.67453521  0.54271803  0.82331517     0.12000
C3481       C  0.81690897  0.68383445  0.67823966     0.15900
C3482       C  0.81846270  0.67478463  0.70185971    -0.33100
C3483       C  0.81902124  0.65755388  0.69878531     0.20300
C3484       C  0.81799048  0.64968865  0.67324720     0.02500
C3485       C  0.81639000  0.65872242  0.64958155    -0.22800
C3486       C  0.81592673  0.67602948  0.65267006     0.11700
S3487       S  0.81589848  0.70469678  0.67799453    -0.06500
C3488       C  0.81402747  0.70298860  0.64301591    -0.10000
C3489       C  0.81435628  0.68703370  0.63222572    -0.26600
S3490       S  0.81957366  0.62911829  0.67366345    -0.03800
C3491       C  0.82180806  0.63114085  0.70864632    -0.17200
C3492       C  0.82114500  0.64693777  0.71927056    -0.15200
H3493       H  0.81931135  0.68098273  0.72176048     0.20100
H3494       H  0.81569084  0.65260599  0.62966090     0.16200
H3495       H  0.81312586  0.68348549  0.61078641     0.18700
H3496       H  0.82282081  0.65082931  0.74060510     0.12000
C3497       C  0.86667729  0.65360899  0.90564943     0.15900
C3498       C  0.86628709  0.66633290  0.92508268    -0.33100
C3499       C  0.88418211  0.68149584  0.93449621     0.20300
C3500       C  0.90168588  0.68407672  0.92470462     0.02500
C3501       C  0.90207765  0.67113108  0.90570219    -0.22800
C3502       C  0.88420291  0.65576630  0.89668114     0.11700
S3503       S  0.84662913  0.63488782  0.89056071    -0.06500
C3504       C  0.86203783  0.62946357  0.87289210    -0.10000
C3505       C  0.88160470  0.64176239  0.87819870    -0.26600
S3506       S  0.92178910  0.70352498  0.93837177    -0.03800
C3507       C  0.90649895  0.70794740  0.95813222    -0.17200
C3508       C  0.88685081  0.69505215  0.95383442    -0.15200
H3509       H  0.85264334  0.66453629  0.93247559     0.20100
H3510       H  0.91572291  0.67293920  0.89829101     0.16200
H3511       H  0.89332537  0.64096536  0.86817303     0.18700
H3512       H  0.87513994  0.69534199  0.96469443     0.12000
C3513       C  0.99597817  0.78995287  0.22014761     0.15900
C3514       C  0.00882556  0.79808803  0.24212026    -0.33100
C3515       C  0.00111559  0.79266805  0.26851202     0.20300
C3516       C  0.98151345  0.77996141  0.27302263     0.02500
C3517       C  0.96866447  0.77199478  0.25108028    -0.22800
C3518       C  0.97639512  0.77719813  0.22471229     0.11700
S3519       S  0.00230819  0.79412207  0.18638262    -0.06500
C3520       C  0.97824853  0.77849955  0.17841758    -0.10000
C3521       C  0.96623972  0.77060413  0.20098174    -0.26600
S3522       S  0.97523248  0.77476183  0.30664661    -0.03800
C3523       C  0.99934967  0.78972956  0.31472746    -0.17200
C3524       C  0.01135995  0.79833939  0.29229639    -0.15200
H3525       H  0.02418793  0.80796245  0.23881856     0.20100
H3526       H  0.95334614  0.76193267  0.25438316     0.16200
H3527       H  0.95074237  0.76048585  0.20010658     0.18700
H3528       H  0.02694857  0.80799471  0.29327422     0.12000
C3529       C  0.13061750  0.92335305  0.46338115     0.15900
C3530       C  0.14284694  0.94373230  0.46269398    -0.33100
C3531       C  0.15971565  0.95190802  0.47899242     0.20300
C3532       C  0.16405708  0.94024459  0.49521388     0.02500
C3533       C  0.15223856  0.91995727  0.49517474    -0.22800
C3534       C  0.13548232  0.91181864  0.47895965     0.11700
S3535       S  0.10880654  0.91046581  0.44671740    -0.06500
C3536       C  0.10648643  0.88932277  0.46051584    -0.10000
C3537       C  0.12192285  0.89239178  0.47711552    -0.26600
S3538       S  0.18370891  0.95271539  0.51590059    -0.03800
C3539       C  0.18654245  0.97403330  0.50238443    -0.17200
C3540       C  0.17288925  0.97142176  0.48260697    -0.15200
H3541       H  0.13911221  0.95282942  0.45060069     0.20100
H3542       H  0.15565818  0.91091107  0.50792382     0.16200
H3543       H  0.12303088  0.88098927  0.48770023     0.18700
H3544       H  0.17193450  0.98314237  0.47274272     0.12000
C3545       C  0.92410070  0.76593717  0.49617011     0.15900
C3546       C  0.90382586  0.75716780  0.49872684    -0.33100
C3547       C  0.89648938  0.76532891  0.51727603     0.20300
C3548       C  0.90882577  0.78164606  0.53236967     0.02500
C3549       C  0.92911412  0.79020058  0.53018548    -0.22800
C3550       C  0.93645537  0.78189549  0.51186890     0.11700
S3551       S  0.93576793  0.75886593  0.47372927    -0.06500
C3552       C  0.95757743  0.77730555  0.48595825    -0.10000
C3553       C  0.95573384  0.78832728  0.50639511    -0.26600
S3554       S  0.89708290  0.78992825  0.55271653    -0.03800
C3555       C  0.87525539  0.77095325  0.54131214    -0.17200
C3556       C  0.87720832  0.75899323  0.52252392    -0.15200
H3557       H  0.89418798  0.74466362  0.48653550     0.20100
H3558       H  0.93875224  0.80290563  0.54203540     0.16200
H3559       H  0.96780571  0.80081565  0.51593870     0.18700
H3560       H  0.86517137  0.74654395  0.51286167     0.12000
C3561       C  0.13919302  0.84548027  0.33360387     0.15900
C3562       C  0.14999114  0.84900680  0.30969907    -0.33100
C3563       C  0.16766172  0.84924169  0.31156763     0.20300
C3564       C  0.17428329  0.84618061  0.33621525     0.02500
C3565       C  0.16357562  0.84285187  0.36020073    -0.22800
C3566       C  0.14585998  0.84255733  0.35830411     0.11700
S3567       S  0.11694164  0.84348385  0.33504683    -0.06500
C3568       C  0.11651229  0.83863462  0.36935508    -0.10000
C3569       C  0.13293672  0.83876081  0.37906810    -0.26600
S3570       S  0.19595136  0.84688717  0.33429417    -0.03800
C3571       C  0.19619629  0.85147928  0.29989970    -0.17200
C3572       C  0.18019575  0.85230578  0.29054987    -0.15200
H3573       H  0.14471119  0.85119584  0.29043093     0.20100
H3574       H  0.16872356  0.84038544  0.37940116     0.16200
H3575       H  0.13493319  0.83543337  0.39980864     0.18700
H3576       H  0.17800330  0.85527147  0.26971313     0.12000
C3577       C  0.94305210  0.68354193  0.41201253     0.15900
C3578       C  0.92850930  0.66464620  0.40462441    -0.33100
C3579       C  0.92554268  0.64909203  0.42176729     0.20300
C3580       C  0.93614993  0.65234324  0.44555207     0.02500
C3581       C  0.95020783  0.67113595  0.45322626    -0.22800
C3582       C  0.95364220  0.68646361  0.43570507     0.11700
S3583       S  0.95081888  0.70430808  0.39274017    -0.06500
C3584       C  0.96877485  0.71663111  0.41664055    -0.10000
C3585       C  0.96829319  0.70524551  0.43836999    -0.26600
S3586       S  0.93283062  0.63180357  0.46150547    -0.03800
C3587       C  0.91706906  0.61844733  0.43587459    -0.17200
C3588       C  0.91430380  0.62952567  0.41629359    -0.15200
H3589       H  0.92067141  0.66205790  0.38563348     0.20100
H3590       H  0.95901849  0.67357395  0.47122799     0.16200
H3591       H  0.97867779  0.71038481  0.45495522     0.18700
H3592       H  0.90623649  0.62370816  0.39759701     0.12000
C3593       C  0.09836640  0.66475299  0.88929746     0.15900
C3594       C  0.09395999  0.65193947  0.91130425    -0.33100
C3595       C  0.09794343  0.65989028  0.93761712     0.20300
C3596       C  0.10599649  0.67967000  0.94207085     0.02500
C3597       C  0.11045063  0.69248965  0.92004942    -0.22800
C3598       C  0.10641123  0.68453986  0.89371205     0.11700
S3599       S  0.09461435  0.65813894  0.85565456    -0.06500
C3600       C  0.10403675  0.68235156  0.84742349    -0.10000
C3601       C  0.10964884  0.69463825  0.86986924    -0.26600
S3602       S  0.10916316  0.68619305  0.97578381    -0.03800
C3603       C  0.09939158  0.66194502  0.98390818    -0.17200
C3604       C  0.09421278  0.64973124  0.96141582    -0.15200
H3605       H  0.08758932  0.63643640  0.90809889     0.20100
H3606       H  0.11666133  0.70796781  0.92328133     0.16200
H3607       H  0.11591838  0.71028151  0.86882461     0.18700
H3608       H  0.08758829  0.63404127  0.96239265     0.12000
C3609       C  0.23724625  0.81493324  0.69821472     0.15900
C3610       C  0.25727195  0.82837166  0.69882891    -0.33100
C3611       C  0.26479999  0.84290345  0.67865545     0.20300
C3612       C  0.25291119  0.84392485  0.65877125     0.02500
C3613       C  0.23290805  0.83082582  0.65855512    -0.22800
C3614       C  0.22541523  0.81638818  0.67867699     0.11700
S3615       S  0.22526677  0.79553102  0.71982781    -0.06500
C3616       C  0.20411795  0.78963066  0.70251690    -0.10000
C3617       C  0.20643395  0.80208911  0.68122480    -0.26600
S3618       S  0.26489648  0.86111303  0.63437717    -0.03800
C3619       C  0.28621860  0.86714877  0.65111035    -0.17200
C3620       C  0.28400019  0.85653712  0.67464898    -0.15200
H3621       H  0.26662995  0.82726286  0.71391313     0.20100
H3622       H  0.22364897  0.83153008  0.64291711     0.16200
H3623       H  0.19484664  0.80055227  0.66794786     0.18700
H3624       H  0.29588263  0.85780267  0.68700841     0.12000
C3625       C  0.00174777  0.62412369  0.75742260     0.15900
C3626       C  0.98348942  0.61243042  0.76953159    -0.33100
C3627       C  0.96688971  0.60732538  0.75361535     0.20300
C3628       C  0.96839328  0.61296642  0.72656187     0.02500
C3629       C  0.98658652  0.62432495  0.71436317    -0.22800
C3630       C  0.00310063  0.63005459  0.73055025     0.11700
S3631       S  0.02362355  0.63423148  0.77414627    -0.06500
C3632       C  0.03442109  0.64705121  0.74485765    -0.10000
C3633       C  0.02175765  0.64315804  0.72329608    -0.26600
S3634       S  0.94678960  0.60726100  0.71153278    -0.03800
C3635       C  0.93560038  0.59747933  0.74208099    -0.17200
C3636       C  0.94800749  0.59836675  0.76262477    -0.15200
H3637       H  0.98226767  0.60846133  0.79083684     0.20100
H3638       H  0.98780716  0.62949057  0.69363030     0.16200
H3639       H  0.02587599  0.65051565  0.70377631     0.18700
H3640       H  0.94362720  0.59404258  0.78352404     0.12000
C3641       C  0.09226905  0.75508721  0.58656489     0.15900
C3642       C  0.07825733  0.75398697  0.56814901    -0.33100
C3643       C  0.08045241  0.77149740  0.55791777     0.20300
C3644       C  0.09613003  0.78933792  0.56523925     0.02500
C3645       C  0.11007944  0.79045089  0.58385804    -0.22800
C3646       C  0.10768360  0.77292206  0.59447359     0.11700
S3647       S  0.09158834  0.73552409  0.60223887    -0.06500
C3648       C  0.11197331  0.75149061  0.62031094    -0.10000
C3649       C  0.11904234  0.77095821  0.61390430    -0.26600
S3650       S  0.09670638  0.80882170  0.54931146    -0.03800
C3651       C  0.07537718  0.79277141  0.53315646    -0.17200
C3652       C  0.06835685  0.77339731  0.53977258    -0.15200
H3653       H  0.06605570  0.74008115  0.56226263     0.20100
H3654       H  0.12219079  0.80436327  0.58992608     0.16200
H3655       H  0.13132336  0.78304365  0.62378303     0.18700
H3656       H  0.05554094  0.76130642  0.53086176     0.12000
C3657       C  0.15893315  0.83212945  0.79901219     0.15900
C3658       C  0.16571510  0.85194744  0.80318321    -0.33100
C3659       C  0.16613890  0.85813747  0.83002455     0.20300
C3660       C  0.16035148  0.84530607  0.85182706     0.02500
C3661       C  0.15367667  0.82553456  0.84767584    -0.22800
C3662       C  0.15300453  0.81931901  0.82083821     0.11700
S3663       S  0.15668900  0.82145421  0.76798240    -0.06500
C3664       C  0.14748483  0.79949673  0.78471461    -0.10000
C3665       C  0.14643884  0.80064766  0.81277457    -0.26600
S3666       S  0.16155629  0.85565689  0.88273612    -0.03800
C3667       C  0.16968539  0.87748921  0.86605069    -0.17200
C3668       C  0.17154477  0.87661670  0.83807249    -0.15200
H3669       H  0.17018530  0.86204474  0.78624948     0.20100
H3670       H  0.14893125  0.81538170  0.86456685     0.16200
H3671       H  0.14100279  0.78838863  0.82664493     0.18700
H3672       H  0.17629209  0.88881895  0.82423665     0.12000
C3673       C  0.23918189  0.44666710  0.19384765     0.15900
C3674       C  0.25961086  0.45622621  0.19274637    -0.33100
C3675       C  0.26819403  0.44845203  0.17564334     0.20300
C3676       C  0.25690120  0.43199482  0.16014594     0.02500
C3677       C  0.23651003  0.42222081  0.16169888    -0.22800
C3678       C  0.22791674  0.42990419  0.17893123     0.11700
S3679       S  0.22595999  0.45432935  0.21217662    -0.06500
C3680       C  0.20494160  0.43467707  0.19985774    -0.10000
C3681       C  0.20828632  0.42279195  0.18259786    -0.26600
S3682       S  0.26995281  0.42561023  0.13920742    -0.03800
C3683       C  0.29090497  0.44498081  0.15195332    -0.17200
C3684       C  0.28777967  0.45584605  0.17128556    -0.15200
H3685       H  0.26842144  0.46932399  0.20438606     0.20100
H3686       H  0.22771088  0.40936297  0.14960955     0.16200
H3687       H  0.19697171  0.40994246  0.17264071     0.18700
H3688       H  0.29918902  0.46883060  0.18086956     0.12000
C3689       C  0.07911710  0.49439436  0.17101847     0.15900
C3690       C  0.07116092  0.50673067  0.17141843    -0.33100
C3691       C  0.07866578  0.52242736  0.15303053     0.20300
C3692       C  0.09335688  0.52560619  0.13494207     0.02500
C3693       C  0.10101020  0.51301954  0.13415269    -0.22800
C3694       C  0.09360369  0.49739587  0.15264628     0.11700
S3695       S  0.07332754  0.47573425  0.19336160    -0.06500
C3696       C  0.09058324  0.47184855  0.17782664    -0.10000
C3697       C  0.10005041  0.48432272  0.15619137    -0.26600
S3698       S  0.10128528  0.54608147  0.11540898    -0.03800
C3699       C  0.08456514  0.55042165  0.13160090    -0.17200
C3700       C  0.07340493  0.53649590  0.15100224    -0.15200
H3701       H  0.05999381  0.50451249  0.18595566     0.20100
H3702       H  0.11261387  0.51560522  0.12021543     0.16200
H3703       H  0.11182264  0.48457786  0.14475752     0.18700
H3704       H  0.06236610  0.53691327  0.16342477     0.12000
C3705       C  0.14904844  0.33943512  0.30605663     0.15900
C3706       C  0.15463011  0.32557732  0.31113356    -0.33100
C3707       C  0.15447716  0.31995748  0.33824548     0.20300
C3708       C  0.14893188  0.32760729  0.35945710     0.02500
C3709       C  0.14319350  0.34135540  0.35435414    -0.22800
C3710       C  0.14350094  0.34709226  0.32725953     0.11700
S3711       S  0.14879447  0.34868208  0.27467698    -0.06500
C3712       C  0.14125839  0.36310558  0.29041050    -0.10000
C3713       C  0.13901140  0.36064801  0.31840510    -0.26600
S3714       S  0.15055571  0.31937291  0.39103356    -0.03800
C3715       C  0.15888153  0.30555369  0.37539539    -0.17200
C3716       C  0.16007025  0.30724833  0.34723890    -0.15200
H3717       H  0.15917407  0.31964992  0.29474626     0.20100
H3718       H  0.13898887  0.34755064  0.37078956     0.16200
H3719       H  0.13449449  0.36852692  0.33170155     0.18700
H3720       H  0.16526930  0.29993111  0.33399458     0.12000
C3721       C  0.16379622  0.24292331  0.01196196     0.15900
C3722       C  0.15081255  0.25001804  0.01244391    -0.33100
C3723       C  0.13698101  0.24416930  0.99160087     0.20300
C3724       C  0.13597296  0.23166210  0.97119696     0.02500
C3725       C  0.14925881  0.22485283  0.97038468    -0.22800
C3726       C  0.16320779  0.23081291  0.99124269     0.11700
S3727       S  0.18067614  0.24732454  0.03652566    -0.06500
C3728       C  0.18722728  0.23279266  0.01874858    -0.10000
C3729       C  0.17686591  0.22516860  0.99481392    -0.26600
S3730       S  0.11727850  0.22542319  0.94876545    -0.03800
C3731       C  0.11108833  0.24014754  0.96684139    -0.17200
C3732       C  0.12292782  0.24928548  0.98899884    -0.15200
H3733       H  0.15123641  0.25941442  0.02868360     0.20100
H3734       H  0.14852171  0.21506486  0.95452107     0.16200
H3735       H  0.17860291  0.21530842  0.98146597     0.18700
H3736       H  0.12105365  0.25881416  0.00284821     0.12000
C3737       C  0.92562224  0.17844950  0.99048111     0.15900
C3738       C  0.90547843  0.16593072  0.98975721    -0.33100
C3739       C  0.89732406  0.15098067  0.00913216     0.20300
C3740       C  0.90869801  0.14844906  0.02832557     0.02500
C3741       C  0.92885499  0.16130564  0.02948683    -0.22800
C3742       C  0.93703085  0.17639601  0.01014362     0.11700
S3743       S  0.93830663  0.19639779  0.96728051    -0.06500
C3744       C  0.95929624  0.20150823  0.98435013    -0.10000
C3745       C  0.95641918  0.18986171  0.00700346    -0.26600
S3746       S  0.89600189  0.12861264  0.04894829    -0.03800
C3747       C  0.87515489  0.12401856  0.03183921    -0.17200
C3748       C  0.87807192  0.13719648  0.01128392    -0.15200
H3749       H  0.89658657  0.16752655  0.97437434     0.20100
H3750       H  0.93780615  0.15940343  0.04443761     0.16200
H3751       H  0.96795738  0.19050519  0.01953409     0.18700
H3752       H  0.86672397  0.13652868  0.99828437     0.12000
C3753       C  0.09801627  0.32184258  0.07217039     0.15900
C3754       C  0.11211976  0.33520366  0.09015530    -0.33100
C3755       C  0.10964942  0.35046173  0.09997575     0.20300
C3756       C  0.09407054  0.35252707  0.09171902     0.02500
C3757       C  0.07975268  0.33893182  0.07432049    -0.22800
C3758       C  0.08196933  0.32345171  0.06507488     0.11700
S3759       S  0.09898928  0.30314817  0.05634185    -0.06500
C3760       C  0.07710297  0.29695468  0.04108142    -0.10000
C3761       C  0.06975743  0.30901226  0.04766622    -0.26600
S3762       S  0.09365548  0.37199255  0.10557660    -0.03800
C3763       C  0.11426570  0.37710902  0.12371081    -0.17200
C3764       C  0.12120471  0.36441947  0.11861259    -0.15200
H3765       H  0.12449350  0.33380497  0.09614843     0.20100
H3766       H  0.06738692  0.34034261  0.06829146     0.16200
H3767       H  0.05679179  0.30800118  0.03875917     0.18700
H3768       H  0.13353634  0.36489464  0.12880957     0.12000
C3769       C  0.15087835  0.33638372  0.86210020     0.15900
C3770       C  0.16982316  0.35173481  0.85777859    -0.33100
C3771       C  0.17624195  0.35636710  0.83076702     0.20300
C3772       C  0.16428616  0.34653036  0.80894512     0.02500
C3773       C  0.14526760  0.33138276  0.81325735    -0.22800
C3774       C  0.13900931  0.32645125  0.84026014     0.11700
S3775       S  0.14053352  0.32774831  0.89330442    -0.06500
C3776       C  0.12010441  0.31041037  0.87664156    -0.10000
C3777       C  0.12140409  0.31158283  0.84846324    -0.26600
S3778       S  0.17509886  0.35395054  0.77777839    -0.03800
C3779       C  0.19604446  0.37031871  0.79439855    -0.17200
C3780       C  0.19444461  0.37004592  0.82253658    -0.15200
H3781       H  0.17930187  0.35941728  0.87470435     0.20100
H3782       H  0.13591506  0.32345807  0.79634016     0.16200
H3783       H  0.11005460  0.30195633  0.83459740     0.18700
H3784       H  0.20611653  0.37916829  0.83633462     0.12000
C3785       C  0.09560094  0.43436115  0.39591644     0.15900
C3786       C  0.09280052  0.42907055  0.42349643    -0.33100
C3787       C  0.09935758  0.44402864  0.44272868     0.20300
C3788       C  0.10800294  0.46336519  0.43473605     0.02500
C3789       C  0.11071582  0.46865777  0.40714269    -0.22800
C3790       C  0.10436816  0.45370923  0.38789439     0.11700
S3791       S  0.09026930  0.41846440  0.36983028    -0.06500
C3792       C  0.10012037  0.43802656  0.34777468    -0.10000
C3793       C  0.10682226  0.45592512  0.36013647    -0.26600
S3794       S  0.11364140  0.47924559  0.46093349    -0.03800
C3795       C  0.10431515  0.45967806  0.48303039    -0.17200
C3796       C  0.09741129  0.44181147  0.47050084    -0.15200
H3797       H  0.08601940  0.41395900  0.42968551     0.20100
H3798       H  0.11753889  0.48377382  0.40097104     0.16200
H3799       H  0.11444499  0.46980666  0.34971564     0.18700
H3800       H  0.08984855  0.42790713  0.48088407     0.12000
C3801       C  0.09810787  0.58698391  0.63426119     0.15900
C3802       C  0.10757988  0.60734319  0.63657076    -0.33100
C3803       C  0.09955651  0.61530797  0.65432527     0.20300
C3804       C  0.08295056  0.60349293  0.66931440     0.02500
C3805       C  0.07326553  0.58316538  0.66657389    -0.22800
C3806       C  0.08118570  0.57520550  0.64865026     0.11700
S3807       S  0.10609866  0.57446145  0.61502655    -0.06500
C3808       C  0.08629972  0.55307379  0.62616767    -0.10000
C3809       C  0.07418045  0.55574812  0.64378655    -0.26600
S3810       S  0.07624299  0.61585147  0.69109537    -0.03800
C3811       C  0.09576153  0.63723066  0.67952375    -0.17200
C3812       C  0.10682681  0.63472834  0.65980651    -0.15200
H3813       H  0.12079603  0.61655663  0.62534206     0.20100
H3814       H  0.06028975  0.57393438  0.67825452     0.16200
H3815       H  0.06129322  0.54406985  0.65324203     0.18700
H3816       H  0.11983231  0.64644676  0.65063855     0.12000
C3817       C  0.15279039  0.44712684  0.68340092     0.15900
C3818       C  0.16862451  0.45125876  0.70049422    -0.33100
C3819       C  0.17909318  0.44159986  0.69533482     0.20300
C3820       C  0.17365418  0.42807559  0.67455693     0.02500
C3821       C  0.15816941  0.42430688  0.65715163    -0.22800
C3822       C  0.14804605  0.43428174  0.66187494     0.11700
S3823       S  0.13830846  0.45737573  0.68585954    -0.06500
C3824       C  0.12627654  0.44477932  0.65695769    -0.10000
C3825       C  0.13305662  0.43306430  0.64647586    -0.26600
S3826       S  0.18749611  0.41723118  0.67217650    -0.03800
C3827       C  0.20141902  0.43161211  0.69871823    -0.17200
C3828       C  0.19526261  0.44392500  0.70907509    -0.15200
H3829       H  0.17269379  0.46164556  0.71691721     0.20100
H3830       H  0.15425820  0.41411358  0.64050000     0.16200
H3831       H  0.12751025  0.42435078  0.62824370     0.18700
H3832       H  0.20214739  0.45389899  0.72581679     0.12000
C3833       C  0.00344792  0.49702941  0.49176042     0.15900
C3834       C  0.99586957  0.50073723  0.46815819    -0.33100
C3835       C  0.97765958  0.49944897  0.47012908     0.20300
C3836       C  0.96742073  0.49441709  0.49445675     0.02500
C3837       C  0.97497251  0.49067101  0.51798817    -0.22800
C3838       C  0.99328299  0.49226902  0.51614237     0.11700
S3839       S  0.02521014  0.49781137  0.49356016    -0.06500
C3840       C  0.02064921  0.49181220  0.52760268    -0.10000
C3841       C  0.00315609  0.48941768  0.53691172    -0.26600
S3842       S  0.94609559  0.49449722  0.49327346    -0.03800
C3843       C  0.95109443  0.50183614  0.45975352    -0.17200
C3844       C  0.96828041  0.50361855  0.44996267    -0.15200
H3845       H  0.00392756  0.50470313  0.44922416     0.20100
H3846       H  0.96705263  0.48699667  0.53702835     0.16200
H3847       H  0.99774465  0.48532870  0.55749513     0.18700
H3848       H  0.97405182  0.50862343  0.42973194     0.12000
C3849       C  0.90525197  0.48748314  0.83863810     0.15900
C3850       C  0.90667367  0.50227852  0.82120566    -0.33100
C3851       C  0.89549772  0.51105342  0.82754336     0.20300
C3852       C  0.88393473  0.50575376  0.85062598     0.02500
C3853       C  0.88229244  0.49080626  0.86771976    -0.22800
C3854       C  0.89293761  0.48163281  0.86095482     0.11700
S3855       S  0.91715621  0.47458206  0.83447924    -0.06500
C3856       C  0.90467516  0.46060256  0.86235140    -0.10000
C3857       C  0.89236210  0.46612636  0.87434657    -0.26600
S3858       S  0.87168549  0.51819913  0.85507192    -0.03800
C3859       C  0.88157585  0.53026244  0.82495214    -0.17200
C3860       C  0.89402267  0.52496279  0.81253962    -0.15200
H3861       H  0.91581975  0.50653120  0.80327757     0.20100
H3862       H  0.87282417  0.48627002  0.88531758     0.16200
H3863       H  0.88328612  0.45900714  0.89188127     0.18700
H3864       H  0.90136643  0.53077190  0.79333736     0.12000
C3865       C  0.80497139  0.24330718  0.82811044     0.15900
C3866       C  0.81981244  0.25524429  0.84628394    -0.33100
C3867       C  0.83097415  0.27515783  0.84011991     0.20300
C3868       C  0.82773890  0.28284237  0.81663311     0.02500
C3869       C  0.81263789  0.27092560  0.79862050    -0.22800
C3870       C  0.80123141  0.25101258  0.80503960     0.11700
S3871       S  0.79021267  0.21875188  0.83179655    -0.06500
C3872       C  0.77853042  0.21875310  0.80220521    -0.10000
C3873       C  0.78580714  0.23700680  0.79028432    -0.26600
S3874       S  0.84312171  0.30740336  0.81287743    -0.03800
C3875       C  0.85361723  0.30743277  0.84372088    -0.17200
C3876       C  0.84563588  0.28915744  0.85577735    -0.15200
H3877       H  0.82251494  0.24925958  0.86451630     0.20100
H3878       H  0.80986064  0.27692246  0.78046606     0.16200
H3879       H  0.78036374  0.23979033  0.77158659     0.18700
H3880       H  0.85014964  0.28630144  0.87523746     0.12000
C3881       C  0.92867122  0.29011782  0.93398006     0.15900
C3882       C  0.93835708  0.28089101  0.94474943    -0.33100
C3883       C  0.94821398  0.27523788  0.92651844     0.20300
C3884       C  0.94776461  0.27784650  0.89865591     0.02500
C3885       C  0.93754404  0.28649684  0.88781375    -0.22800
C3886       C  0.92838430  0.29289281  0.90614375     0.11700
S3887       S  0.91944313  0.30167557  0.95300457    -0.06500
C3888       C  0.91553838  0.31063392  0.92319375    -0.10000
C3889       C  0.92070237  0.30450511  0.89988660    -0.26600
S3890       S  0.96259279  0.27221122  0.88030267    -0.03800
C3891       C  0.96964490  0.26657150  0.91050444    -0.17200
C3892       C  0.96074307  0.26874117  0.93339323    -0.15200
H3893       H  0.93939998  0.27950587  0.96652988     0.20100
H3894       H  0.93791641  0.28940882  0.86620969     0.16200
H3895       H  0.92070779  0.30993785  0.87962610     0.18700
H3896       H  0.96423974  0.26688037  0.95409915     0.12000
C3897       C  0.97183959  0.43500676  0.75323263     0.15900
C3898       C  0.97837815  0.44062827  0.72638615    -0.33100
C3899       C  0.99858440  0.45084314  0.72185663     0.20300
C3900       C  0.01164159  0.45499269  0.74302185     0.02500
C3901       C  0.00513078  0.44987892  0.76985541    -0.22800
C3902       C  0.98501681  0.43995572  0.77442884     0.11700
S3903       S  0.94797575  0.42169257  0.76313942    -0.06500
C3904       C  0.95596966  0.42357394  0.79620852    -0.10000
C3905       C  0.97600484  0.43368004  0.79909900    -0.26600
S3906       S  0.03540212  0.46554175  0.73313169    -0.03800
C3907       C  0.02783641  0.46488852  0.70011875    -0.17200
C3908       C  0.00785374  0.45685998  0.69719035    -0.15200
H3909       H  0.96818889  0.43690963  0.70972888     0.20100
H3910       H  0.01530706  0.45316807  0.78642501     0.16200
H3911       H  0.98358292  0.43599724  0.81828649     0.18700
H3912       H  0.00043095  0.45450522  0.67786633     0.12000
C3913       C  0.01210217  0.52197195  0.99930664     0.15900
C3914       C  0.00449163  0.51137154  0.97520588    -0.33100
C3915       C  0.98790098  0.49289207  0.97736093     0.20300
C3916       C  0.97956556  0.48532429  0.00249576     0.02500
C3917       C  0.98714712  0.49591988  0.02651202    -0.22800
C3918       C  0.00351495  0.51446602  0.02433993     0.11700
S3919       S  0.03152873  0.54487740  0.00086091    -0.06500
C3920       C  0.02779489  0.54456836  0.03556810    -0.10000
C3921       C  0.01246354  0.52734228  0.04529294    -0.26600
S3922       S  0.95980670  0.46268112  0.00122321    -0.03800
C3923       C  0.96248948  0.46326875  0.96633028    -0.17200
C3924       C  0.97807859  0.48030867  0.95636049    -0.15200
H3925       H  0.01107052  0.51736514  0.95564939     0.20100
H3926       H  0.98042910  0.49002404  0.04603022     0.16200
H3927       H  0.00770448  0.52463866  0.06629328     0.18700
H3928       H  0.98212460  0.48321734  0.93510676     0.12000
C3929       C  0.98223041  0.20523811  0.73194646     0.15900
C3930       C  0.97981647  0.20139593  0.75999430    -0.33100
C3931       C  0.99104618  0.21684022  0.77767643     0.20300
C3932       C  0.00411736  0.23521203  0.76772354     0.02500
C3933       C  0.00656276  0.23901648  0.73975267    -0.22800
C3934       C  0.99537994  0.22361010  0.72210919     0.11700
S3935       S  0.96875442  0.18901593  0.70733842    -0.06500
C3936       C  0.98081850  0.20724091  0.68355575    -0.10000
C3937       C  0.99489589  0.22477317  0.69429421    -0.26600
S3938       S  0.01720824  0.25177716  0.79205252    -0.03800
C3939       C  0.00520601  0.23377327  0.81603371    -0.17200
C3940       C  0.99139894  0.21596145  0.80560366    -0.15200
H3941       H  0.96951709  0.18706597  0.76767247     0.20100
H3942       H  0.01673307  0.25339317  0.73208180     0.16200
H3943       H  0.00301452  0.23808987  0.68269631     0.18700
H3944       H  0.98312303  0.20285377  0.81755821     0.12000
C3945       C  0.84772320  0.08679927  0.52614818     0.15900
C3946       C  0.83510203  0.06664441  0.52579963    -0.33100
C3947       C  0.82047982  0.05915118  0.50596415     0.20300
C3948       C  0.81865474  0.07115141  0.48703503     0.02500
C3949       C  0.83090251  0.09139664  0.48792124    -0.22800
C3950       C  0.84538139  0.09891806  0.50802197     0.11700
S3951       S  0.86710913  0.09852313  0.54751116    -0.06500
C3952       C  0.87178087  0.12006140  0.53245209    -0.10000
C3953       C  0.85896746  0.11812461  0.51189751    -0.26600
S3954       S  0.80106573  0.05901111  0.46314627    -0.03800
C3955       C  0.79569994  0.03762035  0.47943771    -0.17200
C3956       C  0.80712918  0.03991289  0.50198266    -0.15200
H3957       H  0.83682076  0.05717738  0.54006279     0.20100
H3958       H  0.82944140  0.10082898  0.47329785     0.16200
H3959       H  0.85988627  0.13006574  0.49998389     0.18700
H3960       H  0.80618441  0.02807717  0.51418845     0.12000
C3961       C  0.05455292  0.24319074  0.50298621     0.15900
C3962       C  0.07480382  0.25176377  0.50172777    -0.33100
C3963       C  0.08255952  0.24353479  0.48411869     0.20300
C3964       C  0.07075145  0.22741477  0.46836429     0.02500
C3965       C  0.05038289  0.21900653  0.46922730    -0.22800
C3966       C  0.04256966  0.22732254  0.48688263     0.11700
S3967       S  0.04252991  0.25021946  0.52477543    -0.06500
C3968       C  0.02097661  0.23188006  0.51186241    -0.10000
C3969       C  0.02317290  0.22089167  0.49164925    -0.26600
S3970       S  0.08331680  0.21918888  0.44938029    -0.03800
C3971       C  0.10462810  0.23780902  0.46276141    -0.17200
C3972       C  0.10188028  0.24963157  0.48080603    -0.15200
H3973       H  0.08413245  0.26410187  0.51440417     0.20100
H3974       H  0.04104746  0.20636020  0.45707524     0.16200
H3975       H  0.01126745  0.20825133  0.48212836     0.18700
H3976       H  0.11346760  0.26194229  0.49136574     0.12000
C3977       C  0.84209609  0.17001448  0.67131983     0.15900
C3978       C  0.83073132  0.16609719  0.69480072    -0.33100
C3979       C  0.81336277  0.16650423  0.69248707     0.20300
C3980       C  0.80761109  0.17057877  0.66782267     0.02500
C3981       C  0.81900086  0.17455256  0.64437414    -0.22800
C3982       C  0.83636849  0.17417105  0.64669668     0.11700
S3983       S  0.86364007  0.17034548  0.67007109    -0.06500
C3984       C  0.86503696  0.17620133  0.63598352    -0.10000
C3985       C  0.84948377  0.17772827  0.62624576    -0.26600
S3986       S  0.78580547  0.16969275  0.66881466    -0.03800
C3987       C  0.78429071  0.16372801  0.70286358    -0.17200
C3988       C  0.80007478  0.16267871  0.71282575    -0.15200
H3989       H  0.83520693  0.16281588  0.71398758     0.20100
H3990       H  0.81445605  0.17768712  0.62513566     0.16200
H3991       H  0.84800691  0.18152466  0.60553697     0.18700
H3992       H  0.80143253  0.15868669  0.73347259     0.12000
C3993       C  0.02711831  0.31894876  0.61419495     0.15900
C3994       C  0.03232207  0.33758200  0.62327465    -0.33100
C3995       C  0.04468767  0.35335120  0.60680377     0.20300
C3996       C  0.05238703  0.35093323  0.58281344     0.02500
C3997       C  0.04753107  0.33216472  0.57396803    -0.22800
C3998       C  0.03440593  0.31619438  0.59001258     0.11700
S3999       S  0.00944014  0.29819714  0.62896425    -0.06500
C4000       C  0.01145026  0.28540994  0.60225014    -0.10000
C4001       C  0.02553458  0.29678283  0.58314879    -0.26600
S4002       S  0.06568950  0.37212716  0.56469152    -0.03800
C4003       C  0.06003487  0.38394532  0.58930886    -0.17200
C4004       C  0.04901315  0.37212639  0.61058786    -0.15200
H4005       H  0.02590296  0.33962086  0.64150416     0.20100
H4006       H  0.05274974  0.33004651  0.55465787     0.16200
H4007       H  0.02775138  0.29138349  0.56405958     0.18700
H4008       H  0.04346473  0.37685649  0.62725892     0.12000
C4009       C  0.87037784  0.34239100  0.11058872     0.15900
C4010       C  0.87704210  0.35584623  0.08914993    -0.33100
C4011       C  0.87372046  0.34852435  0.06251783     0.20300
C4012       C  0.86411815  0.32873134  0.05724898     0.02500
C4013       C  0.85717239  0.31526240  0.07869186    -0.22800
C4014       C  0.86060101  0.32259159  0.10534055     0.11700
S4015       S  0.87395821  0.34823604  0.14444788    -0.06500
C4016       C  0.86212307  0.32369958  0.15160268    -0.10000
C4017       C  0.85572973  0.31184270  0.12872838    -0.26600
S4018       S  0.86269399  0.32296408  0.02341507    -0.03800
C4019       C  0.87523651  0.34752865  0.01635363    -0.17200
C4020       C  0.87994137  0.35931731  0.03921466    -0.15200
H4021       H  0.88487647  0.37134760  0.09303843     0.20100
H4022       H  0.84982928  0.29976557  0.07481723     0.16200
H4023       H  0.84831823  0.29608962  0.12912737     0.18700
H4024       H  0.88813024  0.37507586  0.03891683     0.12000
C4025       C  0.70839354  0.16966559  0.32414382     0.15900
C4026       C  0.72112454  0.18583992  0.30835183    -0.33100
C4027       C  0.74118961  0.19392660  0.31264272     0.20300
C4028       C  0.74835273  0.18611215  0.33157771     0.02500
C4029       C  0.73558330  0.17015262  0.34785896    -0.22800
C4030       C  0.71544419  0.16222326  0.34381343     0.11700
S4031       S  0.68357758  0.15771583  0.32167704    -0.06500
C4032       C  0.68246966  0.14282798  0.34806764    -0.10000
C4033       C  0.70061885  0.14695619  0.35784921    -0.26600
S4034       S  0.77327263  0.19770168  0.33275604    -0.03800
C4035       C  0.77402328  0.21352626  0.30793054    -0.17200
C4036       C  0.75578051  0.20974394  0.29932668    -0.15200
H4037       H  0.71561226  0.19186619  0.29330937     0.20100
H4038       H  0.74109548  0.16418123  0.36298774     0.16200
H4039       H  0.70283384  0.13922534  0.37440316     0.18700
H4040       H  0.75331164  0.21809155  0.28396250     0.12000
C4041       C  0.87790064  0.39037709  0.34827727     0.15900
C4042       C  0.87456586  0.40275114  0.36493611    -0.33100
C4043       C  0.88366041  0.42253549  0.35780805     0.20300
C4044       C  0.89596571  0.42977994  0.33550971     0.02500
C4045       C  0.89922456  0.41740283  0.31877340    -0.22800
C4046       C  0.88974833  0.39755512  0.32553043     0.11700
S4047       S  0.86757520  0.36578300  0.35275483    -0.06500
C4048       C  0.87897174  0.36510396  0.32330123    -0.10000
C4049       C  0.89031848  0.38311273  0.31104098    -0.26600
S4050       S  0.90601827  0.45428166  0.33071746    -0.03800
C4051       C  0.89306764  0.45471552  0.35857948    -0.17200
C4052       C  0.88176211  0.43675586  0.37095653    -0.15200
H4053       H  0.86505225  0.39714879  0.38244201     0.20100
H4054       H  0.90853483  0.42295667  0.30105303     0.16200
H4055       H  0.89824629  0.38544203  0.29218629     0.18700
H4056       H  0.87291200  0.43431583  0.38888721     0.12000
C4057       C  0.89425754  0.22161247  0.42509528     0.15900
C4058       C  0.89215109  0.22681564  0.39855741    -0.33100
C4059       C  0.88084535  0.23571045  0.39483589     0.20300
C4060       C  0.87211421  0.23949282  0.41655322     0.02500
C4061       C  0.87405476  0.23408869  0.44315877    -0.22800
C4062       C  0.88525808  0.22500179  0.44685231     0.11700
S4063       S  0.90818459  0.21154379  0.43388423    -0.06500
C4064       C  0.90173581  0.21168347  0.46727950    -0.10000
C4065       C  0.88931757  0.21910180  0.47111220    -0.26600
S4066       S  0.85950329  0.25103219  0.40752044    -0.03800
C4067       C  0.86571308  0.25024075  0.37412849    -0.17200
C4068       C  0.87712822  0.24172659  0.37053210    -0.15200
H4069       H  0.89917140  0.22419250  0.38153251     0.20100
H4070       H  0.86727544  0.23697537  0.46023696     0.16200
H4071       H  0.88423195  0.22086831  0.49075571     0.18700
H4072       H  0.88263284  0.24024247  0.35106632     0.12000
C4073       C  0.00219812  0.39919031  0.25040242     0.15900
C4074       C  0.98367144  0.39407917  0.26051759    -0.33100
C4075       C  0.96736779  0.38131900  0.24485602     0.20300
C4076       C  0.96951402  0.37454943  0.21985143     0.02500
C4077       C  0.98794451  0.38003650  0.20947551    -0.22800
C4078       C  0.00409550  0.39210528  0.22553868     0.11700
S4079       S  0.02369033  0.41196450  0.26791244    -0.06500
C4080       C  0.03497891  0.40684649  0.24190135    -0.10000
C4081       C  0.02278394  0.39653859  0.22054886    -0.26600
S4082       S  0.94833953  0.35709018  0.20572738    -0.03800
C4083       C  0.93626768  0.35860765  0.23380004    -0.17200
C4084       C  0.94819095  0.37229760  0.25287456    -0.15200
H4085       H  0.98199072  0.39879698  0.28047017     0.20100
H4086       H  0.98956898  0.37402237  0.19055742     0.16200
H4087       H  0.02718248  0.39145019  0.20298357     0.18700
H4088       H  0.94336160  0.37407560  0.27270545     0.12000
C4089       C  0.83204712  0.16919996  0.13496707     0.15900
C4090       C  0.83368464  0.18728498  0.14051990    -0.33100
C4091       C  0.83452281  0.19259653  0.16796497     0.20300
C4092       C  0.83406140  0.18068292  0.18898278     0.02500
C4093       C  0.83273222  0.16278932  0.18341557    -0.22800
C4094       C  0.83164729  0.15736984  0.15605321     0.11700
S4095       S  0.82893531  0.15901853  0.10328353    -0.06500
C4096       C  0.82677225  0.13850498  0.11881577    -0.10000
C4097       C  0.82891621  0.13997889  0.14691780    -0.26600
S4098       S  0.83496230  0.18967009  0.22090595    -0.03800
C4099       C  0.83601031  0.20976024  0.20577902    -0.17200
C4100       C  0.83559706  0.20925496  0.17748582    -0.15200
H4101       H  0.83380120  0.19658044  0.12424634     0.20100
H4102       H  0.83211744  0.15328182  0.19972091     0.16200
H4103       H  0.82743706  0.12842660  0.16027916     0.18700
H4104       H  0.83620289  0.22059509  0.16447490     0.12000
loop_ 
_geom_bond_atom_site_label_1 
_geom_bond_atom_site_label_2 
_geom_bond_distance 
_geom_bond_site_symmetry_2 
_ccdc_geom_bond_type 
Zr1           O2   2.439       .  S
Zr1           O3   2.458       .  S
Zr1           O4   2.452       .  S
Zr1           O7   2.459       .  S
Zr1           O9   2.385       .  S
Zr1          O10   2.386       .  S
Zr1          O11   2.418       .  S
Zr1          O12   2.405       .  S
O2           H58   0.990       .  S
O2           H66   0.990       .  S
O3           C23   1.287       .  A
O4           C25   1.287       .  A
O5          Zr15   2.391       .  S
O5           C24   1.277       .  A
O6          Zr14   2.451       .  S
O6           C25   1.287       .  A
O7           C24   1.289       .  A
O8          Zr16   2.427       .  S
O8           C23   1.282       .  A
O9          Zr14   2.403       .  S
O9          Zr16   2.385       .  S
O10         Zr15   2.387       .  S
O10         Zr16   2.373       .  S
O10          H45   0.966       .  S
O11         Zr14   2.409       .  S
O11         Zr31   2.384       .  S
O11          H48   0.964       .  S
O12         Zr15   2.392       .  S
O12         Zr31   2.393       .  S
Zr13         O38   2.441       .  S
Zr13         O32   2.451       .  S
Zr13         O40   2.461       .  S
Zr13         O28   2.429       .  S
Zr13         O19   2.409       .  S
Zr13         O20   2.416       .  S
Zr13         O21   2.382       .  S
Zr13         O22   2.376       .  S
Zr14         O33   2.437       .  S
Zr14         O26   2.437       .  S
Zr14         O27   2.448       .  S
Zr14         O20   2.402       .  S
Zr14         O21   2.398       .  S
Zr15         O17   2.437       .  S
Zr15         O39   2.437       .  S
Zr15         O41   2.401       .  S
Zr15         O19   2.381       .  S
Zr15         O22   2.385       .  S
Zr16         O42   2.437       .  S
Zr16         O43   2.435       .  S
Zr16         O18   2.437       .  S
Zr16         O19   2.404       .  S
Zr16         O20   2.396       .  S
O17          H54   0.991       .  S
O18          H49   0.990       .  S
O18          H63   0.990       .  S
O20          H46   0.965       .  S
O21         Zr31   2.378       .  S
O22         Zr31   2.364       .  S
O22          H47   0.966       .  S
C23        C4035   1.484       .  S
C24        C4099   1.473       .  S
C25        C4067   1.476       .  S
O26          H62   0.990       .  S
O27          C29   1.288       .  A
O28          C29   1.285       .  A
C29        C4048   1.474       .  S
O30         Zr31   2.439       .  S
O30          H59   0.991       .  S
Zr31         O34   2.438       .  S
Zr31         O35   2.442       .  S
Zr31         O36   2.414       .  S
O32          C37   1.286       .  A
O33          H50   0.990       .  S
O33          H65   0.990       .  S
O34          H51   0.990       .  S
O35          H55   0.990       .  S
O35          H64   0.990       .  S
O36          C37   1.279       .  A
C37        C4083   1.468       .  S
O38          H57   0.990       .  S
O38          H61   0.990       .  S
O39          H53   0.990       .  S
O39          H60   0.990       .  S
O40          C44   1.289       .  A
O41          C44   1.279       .  A
O42          H52   0.990       .  S
O43          H56   0.990       .  S
C44        C4016   1.476       .  S
Zr67         O68   2.441       .  S
Zr67         O69   2.442       .  S
Zr67         O70   2.446       .  S
Zr67         O73   2.457       .  S
Zr67         O75   2.391       .  S
Zr67         O76   2.385       .  S
Zr67         O77   2.417       .  S
Zr67         O78   2.399       .  S
O68         H124   0.990       .  S
O68         H132   0.990       .  S
O69          C89   1.284       .  A
O70          C91   1.286       .  A
O71         Zr81   2.391       .  S
O71          C90   1.276       .  A
O72         Zr80   2.453       .  S
O72          C91   1.288       .  A
O73          C90   1.288       .  A
O74         Zr82   2.416       .  S
O74          C89   1.280       .  A
O75         Zr80   2.401       .  S
O75         Zr82   2.384       .  S
O76         Zr81   2.383       .  S
O76         Zr82   2.376       .  S
O76         H111   0.966       .  S
O77         Zr80   2.409       .  S
O77         Zr97   2.381       .  S
O77         H114   0.963       .  S
O78         Zr81   2.388       .  S
O78         Zr97   2.393       .  S
Zr79        O104   2.441   1_655  S
Zr79         O98   2.448       .  S
Zr79        O106   2.460       .  S
Zr79         O94   2.430   1_655  S
Zr79         O85   2.405       .  S
Zr79         O86   2.416       .  S
Zr79         O87   2.381       .  S
Zr79         O88   2.379       .  S
Zr80         O99   2.436       .  S
Zr80         O92   2.432       .  S
Zr80         O93   2.461       .  S
Zr80         O86   2.400       .  S
Zr80         O87   2.392       .  S
Zr81         O83   2.435       .  S
Zr81        O105   2.441       .  S
Zr81        O107   2.396       .  S
Zr81         O85   2.380       .  S
Zr81         O88   2.386       .  S
Zr82        O108   2.436       .  S
Zr82        O109   2.435       .  S
Zr82         O84   2.438       .  S
Zr82         O85   2.397       .  S
Zr82         O86   2.390       .  S
O83         H120   0.990       .  S
O84         H115   0.990       .  S
O84         H129   0.990       .  S
O86         H112   0.965       .  S
O87         Zr97   2.375       .  S
O88         Zr97   2.368       .  S
O88         H113   0.966       .  S
C89        C3952   1.468       .  S
C90        C3984   1.469       .  S
C91        C4064   1.477       .  S
O92         H128   0.990       .  S
O93          C95   1.290   1_655  A
O94          C95   1.285       .  A
C95        C3968   1.475       .  S
O96         Zr97   2.439       .  S
O96         H125   0.990       .  S
Zr97        O100   2.437       .  S
Zr97        O101   2.440       .  S
Zr97        O102   2.417       .  S
O98         C103   1.285       .  A
O99         H116   0.990       .  S
O99         H131   0.990       .  S
O100        H117   0.990       .  S
O101        H121   0.990       .  S
O101        H130   0.990       .  S
O102        C103   1.280       .  A
C103       C4000   1.468   1_655  S
O104        H123   0.991   1_455  S
O104        H127   0.990       .  S
O105        H119   0.990       .  S
O105        H126   0.990       .  S
O106        C110   1.290       .  A
O107        C110   1.277       .  A
O108        H118   0.990       .  S
O109        H122   0.990       .  S
C110       C3936   1.466       .  S
Zr133       O134   2.441       .  S
Zr133       O135   2.452       .  S
Zr133       O136   2.436       .  S
Zr133       O139   2.460       .  S
Zr133       O141   2.390       .  S
Zr133       O142   2.383       .  S
Zr133       O143   2.417       .  S
Zr133       O144   2.402       .  S
O134        H190   0.990       .  S
O134        H198   0.991       .  S
O135        C155   1.286       .  A
O136        C157   1.284       .  A
O137       Zr147   2.396       .  S
O137        C156   1.279       .  A
O138       Zr146   2.446       .  S
O138        C157   1.286       .  A
O139        C156   1.289       .  A
O140       Zr148   2.437       .  S
O140        C155   1.285       .  A
O141       Zr146   2.403       .  S
O141       Zr148   2.377       .  S
O142       Zr147   2.384       .  S
O142       Zr148   2.369       .  S
O142        H177   0.965       .  S
O143       Zr146   2.406       .  S
O143       Zr163   2.385       .  S
O143        H180   0.965       .  S
O144       Zr147   2.382       .  S
O144       Zr163   2.390       .  S
Zr145       O170   2.442       .  S
Zr145       O164   2.449       .  S
Zr145       O172   2.462       .  S
Zr145       O160   2.446       .  S
Zr145       O151   2.410       .  S
Zr145       O152   2.420       .  S
Zr145       O153   2.384       .  S
Zr145       O154   2.382       .  S
Zr146       O165   2.436       .  S
Zr146       O158   2.434       .  S
Zr146       O159   2.461       .  S
Zr146       O152   2.404       .  S
Zr146       O153   2.389       .  S
Zr147       O149   2.435       .  S
Zr147       O171   2.439       .  S
Zr147       O173   2.402       .  S
Zr147       O151   2.383       .  S
Zr147       O154   2.385       .  S
Zr148       O174   2.435       .  S
Zr148       O175   2.435       .  S
Zr148       O150   2.437       .  S
Zr148       O151   2.405       .  S
Zr148       O152   2.397       .  S
O149        H186   0.990   1_556  S
O150        H181   0.990       .  S
O150        H195   0.990       .  S
O152        H178   0.965       .  S
O153       Zr163   2.380       .  S
O154       Zr163   2.369       .  S
O154        H179   0.966       .  S
C155       C3856   1.483       .  S
C156       C3923   1.474       .  S
C157       C3904   1.471       .  S
O158        H194   0.990       .  S
O159        C161   1.289       .  A
O160        C161   1.287       .  A
C161       C3875   1.486       .  S
O162       Zr163   2.439       .  S
O162        H191   0.990       .  S
Zr163       O166   2.434       .  S
Zr163       O167   2.444       .  S
Zr163       O168   2.416       .  S
O164        C169   1.286       .  A
O165        H182   0.990       .  S
O165        H197   0.990       .  S
O166        H183   0.990       .  S
O167        H187   0.990       .  S
O167        H196   0.990       .  S
O168        C169   1.281       .  A
C169       C3888   1.465       .  S
O170        H189   0.991       .  S
O170        H193   0.989       .  S
O171        H185   0.990       .  S
O171        H192   0.990       .  S
O172        C176   1.290       .  A
O173        C176   1.279       .  A
O174        H184   0.990       .  S
O175        H188   0.990       .  S
C176       C4019   1.476   1_556  S
Zr199       O200   2.440       .  S
Zr199       O201   2.452       .  S
Zr199       O202   2.446       .  S
Zr199       O205   2.461       .  S
Zr199       O207   2.392       .  S
Zr199       O208   2.382       .  S
Zr199       O209   2.419       .  S
Zr199       O210   2.401       .  S
O200        H256   0.990       .  S
O200        H264   0.990       .  S
O201        C221   1.287       .  A
O202        C223   1.286       .  A
O203       Zr213   2.385       .  S
O203        C222   1.276       .  A
O204       Zr212   2.444       .  S
O204        C223   1.287       .  A
O205        C222   1.289       .  A
O206       Zr214   2.424       .  S
O206        C221   1.281       .  A
O207       Zr212   2.398       .  S
O207       Zr214   2.382       .  S
O208       Zr213   2.381       .  S
O208       Zr214   2.370       .  S
O208        H243   0.967       .  S
O209       Zr212   2.408       .  S
O209       Zr229   2.381       .  S
O209        H246   0.964       .  S
O210       Zr213   2.385       .  S
O210       Zr229   2.389       .  S
Zr211       O236   2.443       .  S
Zr211       O230   2.456       .  S
Zr211       O238   2.468       .  S
Zr211       O226   2.436       .  S
Zr211       O217   2.409       .  S
Zr211       O218   2.421       .  S
Zr211       O219   2.381       .  S
Zr211       O220   2.381       .  S
Zr212       O231   2.434       .  S
Zr212       O224   2.435       .  S
Zr212       O225   2.451       .  S
Zr212       O218   2.396       .  S
Zr212       O219   2.385       .  S
Zr213       O215   2.437       .  S
Zr213       O237   2.434       .  S
Zr213       O239   2.388       .  S
Zr213       O217   2.378       .  S
Zr213       O220   2.385       .  S
Zr214       O240   2.434       .  S
Zr214       O241   2.436       .  S
Zr214       O216   2.437       .  S
Zr214       O217   2.400       .  S
Zr214       O218   2.392       .  S
O215        H252   0.990       .  S
O216        H247   0.991       .  S
O216        H261   0.990       .  S
O218        H244   0.966       .  S
O219       Zr229   2.379       .  S
O220       Zr229   2.372       .  S
O220        H245   0.965       .  S
C221       C3808   1.481       .  S
C222       C3840   1.468       .  S
C223       C3907   1.474       .  S
O224        H260   0.990       .  S
O225        C227   1.288       .  A
O226        C227   1.286       .  A
C227       C3824   1.477       .  S
O228       Zr229   2.441       .  S
O228        H257   0.990   1_455  S
Zr229       O232   2.438       .  S
Zr229       O233   2.441       .  S
Zr229       O234   2.412       .  S
O230        C235   1.287       .  A
O231        H248   0.990       .  S
O231        H263   0.990       .  S
O232        H249   0.991       .  S
O233        H253   0.990       .  S
O233        H262   0.990       .  S
O234        C235   1.281       .  A
C235       C4003   1.472       .  S
O236        H255   0.990       .  S
O236        H259   0.990       .  S
O237        H251   0.990       .  S
O237        H258   0.990       .  S
O238        C242   1.290       .  A
O239        C242   1.275       .  A
O240        H250   0.990       .  S
O241        H254   0.990       .  S
C242       C3795   1.465       .  S
Zr265       O266   2.441       .  S
Zr265       O267   2.443       .  S
Zr265       O268   2.438       .  S
Zr265       O271   2.448       .  S
Zr265       O273   2.389       .  S
Zr265       O274   2.380       .  S
Zr265       O275   2.414       .  S
Zr265       O276   2.407       .  S
O266        H322   0.990       .  S
O266        H330   0.990       .  S
O267        C287   1.285       .  A
O268        C289   1.283   1_556  A
O269       Zr279   2.400       .  S
O269        C288   1.278       .  A
O270       Zr278   2.446   1_554  S
O270        C289   1.287       .  A
O271        C288   1.286       .  A
O272       Zr280   2.425       .  S
O272        C287   1.281       .  A
O273       Zr278   2.402       .  S
O273       Zr280   2.386       .  S
O274       Zr279   2.379       .  S
O274       Zr280   2.379       .  S
O274        H309   0.968       .  S
O275       Zr278   2.408       .  S
O275       Zr295   2.380       .  S
O275        H312   0.963       .  S
O276       Zr279   2.389       .  S
O276       Zr295   2.399       .  S
Zr277       O302   2.439   1_455  S
Zr277       O296   2.442   1_455  S
Zr277       O304   2.457       .  S
Zr277       O292   2.423   1_455  S
Zr277       O283   2.406       .  S
Zr277       O284   2.414       .  S
Zr277       O285   2.381       .  S
Zr277       O286   2.378       .  S
Zr278       O297   2.437   1_556  S
Zr278       O290   2.436   1_556  S
Zr278       O291   2.457   1_455  S
Zr278       O284   2.399       .  S
Zr278       O285   2.387       .  S
Zr279       O281   2.436       .  S
Zr279       O303   2.435       .  S
Zr279       O305   2.402       .  S
Zr279       O283   2.380       .  S
Zr279       O286   2.388       .  S
Zr280       O306   2.435       .  S
Zr280       O307   2.436       .  S
Zr280       O282   2.438       .  S
Zr280       O283   2.407       .  S
Zr280       O284   2.396       .  S
O281        H318   0.991       .  S
O282        H313   0.991       .  S
O282        H327   0.990       .  S
O284        H310   0.965       .  S
O285       Zr295   2.374       .  S
O286       Zr295   2.363       .  S
O286        H311   0.963       .  S
C287       C3731   1.472       .  S
C288       C3776   1.473       .  S
C289       C3760   1.468       .  S
O290        H326   0.990       .  S
O291        C293   1.289       .  A
O292        C293   1.284       .  A
C293       C3744   1.473       .  S
O294       Zr295   2.442       .  S
O294        H323   0.990       .  S
Zr295       O298   2.438       .  S
Zr295       O299   2.444       .  S
Zr295       O300   2.430       .  S
O296        C301   1.285       .  A
O297        H314   0.990       .  S
O297        H329   0.990       .  S
O298        H315   0.990       .  S
O299        H319   0.990       .  S
O299        H328   0.990       .  S
O300        C301   1.283   1_455  A
C301       C3891   1.468       .  S
O302        H321   0.991       .  S
O302        H325   0.990       .  S
O303        H317   0.990       .  S
O303        H324   0.990       .  S
O304        C308   1.288       .  A
O305        C308   1.278       .  A
O306        H316   0.990       .  S
O307        H320   0.990       .  S
C308       C3939   1.465       .  S
Zr331       O332   2.443       .  S
Zr331       O333   2.452       .  S
Zr331       O334   2.448       .  S
Zr331       O337   2.448       .  S
Zr331       O339   2.394       .  S
Zr331       O340   2.386       .  S
Zr331       O341   2.417       .  S
Zr331       O342   2.412       .  S
O332        H388   0.990       .  S
O332        H396   0.991       .  S
O333        C353   1.286       .  A
O334        C355   1.285       .  A
O335       Zr345   2.385       .  S
O335        C354   1.276       .  A
O336       Zr344   2.453       .  S
O336        C355   1.288       .  A
O337        C354   1.286       .  A
O338       Zr346   2.442       .  S
O338        C353   1.285       .  A
O339       Zr344   2.400       .  S
O339       Zr346   2.387       .  S
O340       Zr345   2.387       .  S
O340       Zr346   2.373       .  S
O340        H375   0.967       .  S
O341       Zr344   2.412       .  S
O341       Zr361   2.375       .  S
O341        H378   0.962       .  S
O342       Zr345   2.391       .  S
O342       Zr361   2.396       .  S
Zr343       O368   2.440       .  S
Zr343       O362   2.450       .  S
Zr343       O370   2.465       .  S
Zr343       O358   2.425       .  S
Zr343       O349   2.408       .  S
Zr343       O350   2.422       .  S
Zr343       O351   2.385       .  S
Zr343       O352   2.378       .  S
Zr344       O363   2.439       .  S
Zr344       O356   2.435       .  S
Zr344       O357   2.464       .  S
Zr344       O350   2.398       .  S
Zr344       O351   2.393       .  S
Zr345       O347   2.436       .  S
Zr345       O369   2.437       .  S
Zr345       O371   2.402       .  S
Zr345       O349   2.376       .  S
Zr345       O352   2.387       .  S
Zr346       O372   2.438       .  S
Zr346       O373   2.435       .  S
Zr346       O348   2.437       .  S
Zr346       O349   2.407       .  S
Zr346       O350   2.403       .  S
O347        H384   0.991       .  S
O348        H379   0.990       .  S
O348        H393   0.990       .  S
O350        H376   0.966       .  S
O351       Zr361   2.372       .  S
O352       Zr361   2.364       .  S
O352        H377   0.966       .  S
C353       C3680   1.488       .  S
C354       C3712   1.467       .  S
C355       C3763   1.478       .  S
O356        H392   0.990       .  S
O357        C359   1.291       .  A
O358        C359   1.284       .  A
C359       C3696   1.479       .  S
O360       Zr361   2.439       .  S
O360        H389   0.990       .  S
Zr361       O364   2.438       .  S
Zr361       O365   2.443       .  S
Zr361       O366   2.419       .  S
O362        C367   1.286       .  A
O363        H380   0.990       .  S
O363        H395   0.990       .  S
O364        H381   0.990       .  S
O365        H385   0.990       .  S
O365        H394   0.990       .  S
O366        C367   1.282       .  A
C367       C4080   1.473       .  S
O368        H387   0.990       .  S
O368        H391   0.990       .  S
O369        H383   0.990       .  S
O369        H390   0.990       .  S
O370        C374   1.289       .  A
O371        C374   1.278       .  A
O372        H382   0.990       .  S
O373        H386   0.990       .  S
C374       C3792   1.467       .  S
Zr397       O398   2.442       .  S
Zr397       O399   2.423       .  S
Zr397       O400   2.453       .  S
Zr397       O403   2.435       .  S
Zr397       O405   2.375       .  S
Zr397       O406   2.391       .  S
Zr397       O407   2.405       .  S
Zr397       O408   2.394       .  S
O398        H454   0.991       .  S
O398        H462   0.990       .  S
O399        C419   1.282       .  A
O400        C421   1.286       .  A
O401       Zr411   2.448       .  S
O401        C420   1.288       .  A
O402       Zr410   2.391       .  S
O402        C421   1.277       .  A
O403        C420   1.285       .  A
O404       Zr412   2.434       .  S
O404        C419   1.282       .  A
O405       Zr410   2.390       .  S
O405       Zr412   2.370       .  S
O406       Zr411   2.394       .  S
O406       Zr412   2.383       .  S
O406        H441   0.965       .  S
O407       Zr410   2.392       .  S
O407       Zr427   2.397       .  S
O407        H444   0.963       .  S
O408       Zr411   2.391       .  S
O408       Zr427   2.377       .  S
Zr409       O434   2.443       .  S
Zr409       O428   2.451       .  S
Zr409       O436   2.432       .  S
Zr409       O424   2.464       .  S
Zr409       O415   2.414       .  S
Zr409       O416   2.408       .  S
Zr409       O417   2.378       .  S
Zr409       O418   2.388       .  S
Zr410       O429   2.437       .  S
Zr410       O422   2.434       .  S
Zr410       O423   2.410       .  S
Zr410       O416   2.390       .  S
Zr410       O417   2.379       .  S
Zr411       O413   2.435       .  S
Zr411       O435   2.437       .  S
Zr411       O437   2.450       .  S
Zr411       O415   2.390       .  S
Zr411       O418   2.389       .  S
Zr412       O438   2.436       .  S
Zr412       O439   2.435       .  S
Zr412       O414   2.435       .  S
Zr412       O415   2.402       .  S
Zr412       O416   2.404       .  S
O413        H450   0.990       .  S
O414        H445   0.990       .  S
O414        H459   0.990       .  S
O416        H442   0.965       .  S
O417       Zr427   2.374       .  S
O418       Zr427   2.383       .  S
O418        H443   0.965       .  S
C419       C3616   1.472       .  S
C420       C3648   1.474       .  S
C421       C3664   1.470       .  S
O422        H458   0.990       .  S
O423        C425   1.281       .  A
O424        C425   1.290       .  A
C425       C3600   1.482       .  S
O426       Zr427   2.440       .  S
O426        H455   0.990       .  S
Zr427       O430   2.438       .  S
Zr427       O431   2.439       .  S
Zr427       O432   2.410       .  S
O428        C433   1.287       .  A
O429        H446   0.990       .  S
O429        H461   0.990       .  S
O430        H447   0.990       .  S
O431        H451   0.990       .  S
O431        H460   0.991       .  S
O432        C433   1.281       .  A
C433       C3632   1.467       .  S
O434        H453   0.990       .  S
O434        H457   0.990       .  S
O435        H449   0.990       .  S
O435        H456   0.990       .  S
O436        C440   1.284       .  A
O437        C440   1.287       .  A
O438        H448   0.990       .  S
O439        H452   0.990       .  S
C440       C3811   1.477       .  S
Zr463       O464   2.439       .  S
Zr463       O465   2.438       .  S
Zr463       O466   2.454       .  S
Zr463       O469   2.438       .  S
Zr463       O471   2.378       .  S
Zr463       O472   2.390       .  S
Zr463       O473   2.409       .  S
Zr463       O474   2.391       .  S
O464        H520   0.990       .  S
O464        H528   0.990       .  S
O465        C485   1.285       .  A
O466        C487   1.287       .  A
O467       Zr477   2.446       .  S
O467        C486   1.287       .  A
O468       Zr476   2.384       .  S
O468        C487   1.275       .  A
O469        C486   1.285       .  A
O470       Zr478   2.448       .  S
O470        C485   1.286       .  A
O471       Zr476   2.389       .  S
O471       Zr478   2.370       .  S
O472       Zr477   2.399       .  S
O472       Zr478   2.380       .  S
O472        H507   0.965       .  S
O473       Zr476   2.393       .  S
O473       Zr493   2.401       .  S
O473        H510   0.965       .  S
O474       Zr477   2.388       .  S
O474       Zr493   2.378       .  S
Zr475       O500   2.443   1_455  S
Zr475       O494   2.468   1_455  S
Zr475       O502   2.430   1_455  S
Zr475       O490   2.468   1_455  S
Zr475       O481   2.412       .  S
Zr475       O482   2.414       .  S
Zr475       O483   2.372       .  S
Zr475       O484   2.385       .  S
Zr476       O495   2.436       .  S
Zr476       O488   2.436       .  S
Zr476       O489   2.392       .  S
Zr476       O482   2.388       .  S
Zr476       O483   2.382       .  S
Zr477       O479   2.436       .  S
Zr477       O501   2.436       .  S
Zr477       O503   2.453   1_455  S
Zr477       O481   2.386       .  S
Zr477       O484   2.384       .  S
Zr478       O504   2.438       .  S
Zr478       O505   2.436       .  S
Zr478       O480   2.435       .  S
Zr478       O481   2.397       .  S
Zr478       O482   2.416       .  S
O479        H516   0.990       .  S
O480        H511   0.990       .  S
O480        H525   0.990       .  S
O482        H508   0.964       .  S
O483       Zr493   2.372       .  S
O484       Zr493   2.384       .  S
O484        H509   0.966       .  S
C485       C3536   1.486       .  S
C486       C3651   1.470       .  S
C487       C3568   1.464       .  S
O488        H524   0.990       .  S
O489        C491   1.277       .  A
O490        C491   1.290   1_655  A
C491       C3523   1.478   1_455  S
O492       Zr493   2.440       .  S
O492        H521   0.991       .  S
Zr493       O496   2.439       .  S
Zr493       O497   2.439       .  S
Zr493       O498   2.413       .  S
O494        C499   1.290       .  A
O495        H512   0.990       .  S
O495        H527   0.990       .  S
O496        H513   0.990       .  S
O497        H517   0.990       .  S
O497        H526   0.990       .  S
O498        C499   1.282   1_455  A
C499       C3584   1.474       .  S
O500        H519   0.991       .  S
O500        H523   0.990       .  S
O501        H515   0.990       .  S
O501        H522   0.990       .  S
O502        C506   1.285       .  A
O503        C506   1.288       .  A
O504        H514   0.990       .  S
O505        H518   0.990       .  S
C506       C3552   1.476       .  S
Zr529       O530   2.442       .  S
Zr529       O531   2.430       .  S
Zr529       O532   2.467       .  S
Zr529       O535   2.438       .  S
Zr529       O537   2.380       .  S
Zr529       O538   2.395       .  S
Zr529       O539   2.407       .  S
Zr529       O540   2.402       .  S
O530        H586   0.990       .  S
O530        H594   0.990       .  S
O531        C551   1.282       .  A
O532        C553   1.289       .  A
O533       Zr543   2.449       .  S
O533        C552   1.288       .  A
O534       Zr542   2.390       .  S
O534        C553   1.275       .  A
O535        C552   1.284       .  A
O536       Zr544   2.447       .  S
O536        C551   1.285       .  A
O537       Zr542   2.393       .  S
O537       Zr544   2.377       .  S
O538       Zr543   2.405       .  S
O538       Zr544   2.382       .  S
O538        H573   0.965       .  S
O539       Zr542   2.399       .  S
O539       Zr559   2.398       .  S
O539        H576   0.966       .  S
O540       Zr543   2.393       .  S
O540       Zr559   2.381       .  S
Zr541       O566   2.437       .  S
Zr541       O560   2.439       .  S
Zr541       O568   2.419       .  S
Zr541       O556   2.458       .  S
Zr541       O547   2.410       .  S
Zr541       O548   2.406       .  S
Zr541       O549   2.369       .  S
Zr541       O550   2.387       .  S
Zr542       O561   2.438       .  S
Zr542       O554   2.433       .  S
Zr542       O555   2.412       .  S
Zr542       O548   2.383       .  S
Zr542       O549   2.379       .  S
Zr543       O545   2.435       .  S
Zr543       O567   2.438       .  S
Zr543       O569   2.470       .  S
Zr543       O547   2.389       .  S
Zr543       O550   2.387       .  S
Zr544       O570   2.437       .  S
Zr544       O571   2.436       .  S
Zr544       O546   2.437       .  S
Zr544       O547   2.405       .  S
Zr544       O548   2.415       .  S
O545        H582   0.990       .  S
O546        H577   0.990       .  S
O546        H591   0.989       .  S
O548        H574   0.964       .  S
O549       Zr559   2.369       .  S
O550       Zr559   2.379       .  S
O550        H575   0.964       .  S
C551       C3472   1.479       .  S
C552       C3504   1.470       .  S
C553       C3491   1.472       .  S
O554        H590   0.990       .  S
O555        C557   1.282       .  A
O556        C557   1.289       .  A
C557       C3456   1.482       .  S
O558       Zr559   2.441       .  S
O558        H587   0.990       .  S
Zr559       O562   2.436       .  S
Zr559       O563   2.440       .  S
Zr559       O564   2.427       .  S
O560        C565   1.284       .  A
O561        H578   0.990       .  S
O561        H593   0.990       .  S
O562        H579   0.990       .  S
O563        H583   0.990       .  S
O563        H592   0.990       .  S
O564        C565   1.282       .  A
C565       C3635   1.464       .  S
O566        H585   0.991       .  S
O566        H589   0.990       .  S
O567        H581   0.990       .  S
O567        H588   0.990       .  S
O568        C572   1.282       .  A
O569        C572   1.292       .  A
O570        H580   0.990       .  S
O571        H584   0.990       .  S
C572       C3859   1.484       .  S
Zr595       O596   2.443       .  S
Zr595       O597   2.432       .  S
Zr595       O598   2.466       .  S
Zr595       O601   2.440   1_554  S
Zr595       O603   2.379       .  S
Zr595       O604   2.396       .  S
Zr595       O605   2.407       .  S
Zr595       O606   2.396       .  S
O596        H652   0.990       .  S
O596        H660   0.991       .  S
O597        C617   1.282       .  A
O598        C619   1.287       .  A
O599       Zr609   2.450   1_556  S
O599        C618   1.288       .  A
O600       Zr608   2.392       .  S
O600        C619   1.277       .  A
O601        C618   1.286       .  A
O602       Zr610   2.450       .  S
O602        C617   1.286       .  A
O603       Zr608   2.391       .  S
O603       Zr610   2.375       .  S
O604       Zr609   2.399       .  S
O604       Zr610   2.382       .  S
O604        H639   0.964       .  S
O605       Zr608   2.394       .  S
O605       Zr625   2.394       .  S
O605        H642   0.964       .  S
O606       Zr609   2.393       .  S
O606       Zr625   2.376       .  S
Zr607       O632   2.444   1_655  S
Zr607       O626   2.458       .  S
Zr607       O634   2.421   1_655  S
Zr607       O622   2.464       .  S
Zr607       O613   2.417       .  S
Zr607       O614   2.412       .  S
Zr607       O615   2.372       .  S
Zr607       O616   2.387       .  S
Zr608       O627   2.439       .  S
Zr608       O620   2.436       .  S
Zr608       O621   2.404       .  S
Zr608       O614   2.387       .  S
Zr608       O615   2.383       .  S
Zr609       O611   2.435   1_554  S
Zr609       O633   2.436   1_554  S
Zr609       O635   2.468       .  S
Zr609       O613   2.390       .  S
Zr609       O616   2.383       .  S
Zr610       O636   2.435       .  S
Zr610       O637   2.435       .  S
Zr610       O612   2.436       .  S
Zr610       O613   2.403       .  S
Zr610       O614   2.414       .  S
O611        H648   0.990       .  S
O612        H643   0.990       .  S
O612        H657   0.990       .  S
O614        H640   0.966       .  S
O615       Zr625   2.371       .  S
O616       Zr625   2.382       .  S
O616        H641   0.965       .  S
C617       C3392   1.482       .  S
C618       C3507   1.477       .  S
C619       C3424   1.473       .  S
O620        H656   0.990       .  S
O621        C623   1.280       .  A
O622        C623   1.289       .  A
C623       C3520   1.480       .  S
O624       Zr625   2.439       .  S
O624        H653   0.990       .  S
Zr625       O628   2.436       .  S
Zr625       O629   2.439       .  S
Zr625       O630   2.409       .  S
O626        C631   1.288       .  A
O627        H644   0.990       .  S
O627        H659   0.990       .  S
O628        H645   0.990       .  S
O629        H649   0.990       .  S
O629        H658   0.990       .  S
O630        C631   1.281       .  A
C631       C3440   1.468   1_655  S
O632        H651   0.990       .  S
O632        H655   0.990   1_455  S
O633        H647   0.990       .  S
O633        H654   0.990       .  S
O634        C638   1.283       .  A
O635        C638   1.291   1_655  A
O636        H646   0.990       .  S
O637        H650   0.990       .  S
C638       C3411   1.479       .  S
Zr661       O662   2.439       .  S
Zr661       O663   2.440       .  S
Zr661       O664   2.476       .  S
Zr661       O667   2.435       .  S
Zr661       O669   2.374       .  S
Zr661       O670   2.397       .  S
Zr661       O671   2.404       .  S
Zr661       O672   2.409       .  S
O662        H718   0.990       .  S
O662        H726   0.990       .  S
O663        C683   1.285       .  A
O664        C685   1.291       .  A
O665       Zr675   2.443       .  S
O665        C684   1.287       .  A
O666       Zr674   2.378       .  S
O666        C685   1.274       .  A
O667        C684   1.285       .  A
O668       Zr676   2.445       .  S
O668        C683   1.285       .  A
O669       Zr674   2.381       .  S
O669       Zr676   2.370       .  S
O670       Zr675   2.401       .  S
O670       Zr676   2.380       .  S
O670        H705   0.965       .  S
O671       Zr674   2.391       .  S
O671       Zr691   2.398       .  S
O671        H708   0.966       .  S
O672       Zr675   2.392       .  S
O672       Zr691   2.386       .  S
Zr673       O698   2.439       .  S
Zr673       O692   2.430       .  S
Zr673       O700   2.433       .  S
Zr673       O688   2.467       .  S
Zr673       O679   2.412       .  S
Zr673       O680   2.408       .  S
Zr673       O681   2.374       .  S
Zr673       O682   2.388       .  S
Zr674       O693   2.436       .  S
Zr674       O686   2.432       .  S
Zr674       O687   2.388       .  S
Zr674       O680   2.380       .  S
Zr674       O681   2.378       .  S
Zr675       O677   2.435       .  S
Zr675       O699   2.433       .  S
Zr675       O701   2.461       .  S
Zr675       O679   2.387       .  S
Zr675       O682   2.384       .  S
Zr676       O702   2.436       .  S
Zr676       O703   2.435       .  S
Zr676       O678   2.437       .  S
Zr676       O679   2.404       .  S
Zr676       O680   2.409       .  S
O677        H714   0.990       .  S
O678        H709   0.991       .  S
O678        H723   0.990       .  S
O680        H706   0.965       .  S
O681       Zr691   2.368       .  S
O682       Zr691   2.376       .  S
O682        H707   0.965       .  S
C683       C3699   1.482       .  S
C684       C3376   1.474       .  S
C685       C3920   1.473       .  S
O686        H722   0.990       .  S
O687        C689   1.277       .  A
O688        C689   1.291       .  A
C689       C3603   1.478   1_554  S
O690       Zr691   2.436       .  S
O690        H719   0.990       .  S
Zr691       O694   2.437       .  S
Zr691       O695   2.440       .  S
Zr691       O696   2.423       .  S
O692        C697   1.282       .  A
O693        H710   0.990       .  S
O693        H725   0.990   1_554  S
O694        H711   0.990       .  S
O695        H715   0.990       .  S
O695        H724   0.990       .  S
O696        C697   1.282       .  A
C697       C3443   1.459       .  S
O698        H717   0.990       .  S
O698        H721   0.990       .  S
O699        H713   0.990       .  S
O699        H720   0.990       .  S
O700        C704   1.285       .  A
O701        C704   1.290       .  A
O702        H712   0.990       .  S
O703        H716   0.990       .  S
C704       C3363   1.483       .  S
Zr727       O728   2.441       .  S
Zr727       O729   2.428       .  S
Zr727       O730   2.461       .  S
Zr727       O733   2.448       .  S
Zr727       O735   2.381       .  S
Zr727       O736   2.393       .  S
Zr727       O737   2.408       .  S
Zr727       O738   2.392       .  S
O728        H784   0.990       .  S
O728        H792   0.990       .  S
O729        C749   1.281       .  A
O730        C751   1.288       .  A
O731       Zr741   2.437       .  S
O731        C750   1.286       .  A
O732       Zr740   2.394       .  S
O732        C751   1.278       .  A
O733        C750   1.287       .  A
O734       Zr742   2.445       .  S
O734        C749   1.285       .  A
O735       Zr740   2.391       .  S
O735       Zr742   2.372       .  S
O736       Zr741   2.397       .  S
O736       Zr742   2.380       .  S
O736        H771   0.965       .  S
O737       Zr740   2.398       .  S
O737       Zr757   2.398       .  S
O737        H774   0.966       .  S
O738       Zr741   2.388       .  S
O738       Zr757   2.375       .  S
Zr739       O764   2.441       .  S
Zr739       O758   2.449       .  S
Zr739       O766   2.438       .  S
Zr739       O754   2.462       .  S
Zr739       O745   2.412       .  S
Zr739       O746   2.411       .  S
Zr739       O747   2.375       .  S
Zr739       O748   2.384       .  S
Zr740       O759   2.436       .  S
Zr740       O752   2.435       .  S
Zr740       O753   2.413       .  S
Zr740       O746   2.386       .  S
Zr740       O747   2.382       .  S
Zr741       O743   2.435       .  S
Zr741       O765   2.437       .  S
Zr741       O767   2.447       .  S
Zr741       O745   2.388       .  S
Zr741       O748   2.386       .  S
Zr742       O768   2.437       .  S
Zr742       O769   2.435       .  S
Zr742       O744   2.436       .  S
Zr742       O745   2.403       .  S
Zr742       O746   2.410       .  S
O743        H780   0.990       .  S
O744        H775   0.990       .  S
O744        H789   0.990       .  S
O746        H772   0.964       .  S
O747       Zr757   2.372       .  S
O748       Zr757   2.377       .  S
O748        H773   0.968       .  S
C749       C4051   1.475       .  S
C750       C3379   1.473       .  S
C751       C3843   1.471       .  S
O752        H788   0.990       .  S
O753        C755   1.281       .  A
O754        C755   1.290       .  A
C755       C3459   1.480       .  S
O756       Zr757   2.436       .  S
O756        H785   0.990       .  S
Zr757       O760   2.436       .  S
Zr757       O761   2.438       .  S
Zr757       O762   2.417       .  S
O758        C763   1.286       .  A
O759        H776   0.990       .  S
O759        H791   0.990       .  S
O760        H777   0.990       .  S
O761        H781   0.990       .  S
O761        H790   0.990       .  S
O762        C763   1.281       .  A
C763       C3587   1.467       .  S
O764        H783   0.990       .  S
O764        H787   0.990       .  S
O765        H779   0.990       .  S
O765        H786   0.990       .  S
O766        C770   1.286       .  A
O767        C770   1.287       .  A
O768        H778   0.990       .  S
O769        H782   0.990       .  S
C770       C3344   1.479       .  S
Zr793       O794   2.441       .  S
Zr793       O795   2.439       .  S
Zr793       O796   2.440       .  S
Zr793       O799   2.453       .  S
Zr793       O801   2.389       .  S
Zr793       O802   2.379       .  S
Zr793       O803   2.413       .  S
Zr793       O804   2.407       .  S
O794        H850   0.990       .  S
O794        H858   0.990       .  S
O795        C815   1.284       .  A
O796        C817   1.286       .  A
O797       Zr807   2.391       .  S
O797        C816   1.278       .  A
O798       Zr806   2.457       .  S
O798        C817   1.289       .  A
O799        C816   1.287       .  A
O800       Zr808   2.441       .  S
O800        C815   1.284       .  A
O801       Zr806   2.399       .  S
O801       Zr808   2.381       .  S
O802       Zr807   2.387       .  S
O802       Zr808   2.367       .  S
O802        H837   0.966       .  S
O803       Zr806   2.412       .  S
O803       Zr823   2.376       .  S
O803        H840   0.963       .  S
O804       Zr807   2.382       .  S
O804       Zr823   2.397       .  S
Zr805       O830   2.443       .  S
Zr805       O824   2.478       .  S
Zr805       O832   2.479       .  S
Zr805       O820   2.428       .  S
Zr805       O811   2.413       .  S
Zr805       O812   2.427       .  S
Zr805       O813   2.379       .  S
Zr805       O814   2.381       .  S
Zr806       O825   2.435       .  S
Zr806       O818   2.434       .  S
Zr806       O819   2.460       .  S
Zr806       O812   2.404       .  S
Zr806       O813   2.387       .  S
Zr807       O809   2.436       .  S
Zr807       O831   2.437       .  S
Zr807       O833   2.389       .  S
Zr807       O811   2.385       .  S
Zr807       O814   2.383       .  S
Zr808       O834   2.437       .  S
Zr808       O835   2.435       .  S
Zr808       O810   2.436       .  S
Zr808       O811   2.409       .  S
Zr808       O812   2.406       .  S
O809        H846   0.990       .  S
O810        H841   0.991       .  S
O810        H855   0.990       .  S
O812        H838   0.966       .  S
O813       Zr823   2.370       .  S
O814       Zr823   2.374       .  S
O814        H839   0.965       .  S
C815       C3347   1.480       .  S
C816       C3427   1.470       .  S
C817       C3312   1.478       .  S
O818        H854   0.990       .  S
O819        C821   1.290       .  A
O820        C821   1.284       .  A
C821       C3299   1.476       .  S
O822       Zr823   2.441       .  S
O822        H851   0.990       .  S
Zr823       O826   2.441       .  S
Zr823       O827   2.442       .  S
Zr823       O828   2.413       .  S
O824        C829   1.292       .  A
O825        H842   0.990       .  S
O825        H857   0.990       .  S
O826        H843   0.990       .  S
O827        H847   0.990       .  S
O827        H856   0.990       .  S
O828        C829   1.280       .  A
C829       C3328   1.481       .  S
O830        H849   0.990       .  S
O830        H853   0.990       .  S
O831        H845   0.990       .  S
O831        H852   0.990       .  S
O832        C836   1.292       .  A
O833        C836   1.277       .  A
O834        H844   0.990       .  S
O835        H848   0.990       .  S
C836       C3283   1.478       .  S
Zr859       O860   2.442       .  S
Zr859       O861   2.454       .  S
Zr859       O862   2.445       .  S
Zr859       O865   2.459       .  S
Zr859       O867   2.390       .  S
Zr859       O868   2.385       .  S
Zr859       O869   2.422       .  S
Zr859       O870   2.406       .  S
O860        H916   0.990       .  S
O860        H924   0.990       .  S
O861        C881   1.286       .  A
O862        C883   1.285       .  A
O863       Zr873   2.393       .  S
O863        C882   1.277       .  A
O864       Zr872   2.455       .  S
O864        C883   1.288       .  A
O865        C882   1.288       .  A
O866       Zr874   2.426       .  S
O866        C881   1.281       .  A
O867       Zr872   2.404       .  S
O867       Zr874   2.385       .  S
O868       Zr873   2.387       .  S
O868       Zr874   2.373       .  S
O868        H903   0.966       .  S
O869       Zr872   2.410       .  S
O869       Zr889   2.382       .  S
O869        H906   0.963       .  S
O870       Zr873   2.386       .  S
O870       Zr889   2.397       .  S
Zr871       O896   2.439       .  S
Zr871       O890   2.455       .  S
Zr871       O898   2.457       .  S
Zr871       O886   2.437       .  S
Zr871       O877   2.408       .  S
Zr871       O878   2.418       .  S
Zr871       O879   2.380       .  S
Zr871       O880   2.379       .  S
Zr872       O891   2.437       .  S
Zr872       O884   2.434       .  S
Zr872       O885   2.459       .  S
Zr872       O878   2.401       .  S
Zr872       O879   2.390       .  S
Zr873       O875   2.437       .  S
Zr873       O897   2.438       .  S
Zr873       O899   2.399       .  S
Zr873       O877   2.377       .  S
Zr873       O880   2.387       .  S
Zr874       O900   2.437       .  S
Zr874       O901   2.434       .  S
Zr874       O876   2.435       .  S
Zr874       O877   2.398       .  S
Zr874       O878   2.391       .  S
O875        H912   0.990       .  S
O876        H907   0.990       .  S
O876        H921   0.990       .  S
O878        H904   0.965       .  S
O879       Zr889   2.375       .  S
O880       Zr889   2.364       .  S
O880        H905   0.965       .  S
C881       C3555   1.481       .  S
C882       C3488   1.471       .  S
C883       C3315   1.470       .  S
O884        H920   0.990       .  S
O885        C887   1.290       .  A
O886        C887   1.287       .  A
C887       C3248   1.480       .  S
O888       Zr889   2.438       .  S
O888        H917   0.990       .  S
Zr889       O892   2.437       .  S
Zr889       O893   2.443       .  S
Zr889       O894   2.423       .  S
O890        C895   1.287       .  A
O891        H908   0.990       .  S
O891        H923   0.990       .  S
O892        H909   0.990       .  S
O893        H913   0.990       .  S
O893        H922   0.990       .  S
O894        C895   1.282       .  A
C895       C3264   1.473       .  S
O896        H915   0.990       .  S
O896        H919   0.990       .  S
O897        H911   0.990       .  S
O897        H918   0.990       .  S
O898        C902   1.289       .  A
O899        C902   1.278       .  A
O900        H910   0.990       .  S
O901        H914   0.990       .  S
C902       C3235   1.465       .  S
Zr925       O926   2.439       .  S
Zr925       O927   2.433       .  S
Zr925       O928   2.429   1_556  S
Zr925       O931   2.459       .  S
Zr925       O933   2.390       .  S
Zr925       O934   2.375       .  S
Zr925       O935   2.412       .  S
Zr925       O936   2.397       .  S
O926        H982   0.990       .  S
O926        H990   0.990       .  S
O927        C947   1.283       .  A
O928        C949   1.283       .  A
O929       Zr939   2.382       .  S
O929        C948   1.275       .  A
O930       Zr938   2.439   1_554  S
O930        C949   1.287       .  A
O931        C948   1.289       .  A
O932       Zr940   2.436       .  S
O932        C947   1.284       .  A
O933       Zr938   2.399       .  S
O933       Zr940   2.376       .  S
O934       Zr939   2.388       .  S
O934       Zr940   2.370       .  S
O934        H969   0.966       .  S
O935       Zr938   2.412       .  S
O935       Zr955   2.373       .  S
O935        H972   0.964       .  S
O936       Zr939   2.380       .  S
O936       Zr955   2.395       .  S
Zr937       O962   2.441       .  S
Zr937       O956   2.457       .  S
Zr937       O964   2.458       .  S
Zr937       O952   2.431       .  S
Zr937       O943   2.407       .  S
Zr937       O944   2.417       .  S
Zr937       O945   2.381       .  S
Zr937       O946   2.373       .  S
Zr938       O957   2.435   1_556  S
Zr938       O950   2.436   1_556  S
Zr938       O951   2.457       .  S
Zr938       O944   2.400       .  S
Zr938       O945   2.388       .  S
Zr939       O941   2.435       .  S
Zr939       O963   2.437       .  S
Zr939       O965   2.384       .  S
Zr939       O943   2.385       .  S
Zr939       O946   2.381       .  S
Zr940       O966   2.436       .  S
Zr940       O967   2.436       .  S
Zr940       O942   2.439       .  S
Zr940       O943   2.407       .  S
Zr940       O944   2.395       .  S
O941        H978   0.990       .  S
O942        H973   0.990       .  S
O942        H987   0.990       .  S
O944        H970   0.965       .  S
O945       Zr955   2.376       .  S
O946       Zr955   2.364       .  S
O946        H971   0.964       .  S
C947       C3168   1.477       .  S
C948       C3216   1.471       .  S
C949       C3200   1.460       .  S
O950        H986   0.990       .  S
O951        C953   1.289       .  A
O952        C953   1.285       .  A
C953       C3395   1.479       .  S
O954       Zr955   2.440       .  S
O954        H983   0.990       .  S
Zr955       O958   2.439       .  S
Zr955       O959   2.441       .  S
Zr955       O960   2.414       .  S
O956        C961   1.288       .  A
O957        H974   0.990       .  S
O957        H989   0.990       .  S
O958        H975   0.990       .  S
O959        H979   0.990       .  S
O959        H988   0.990       .  S
O960        C961   1.281       .  A
C961       C3184   1.475       .  S
O962        H981   0.991       .  S
O962        H985   0.990       .  S
O963        H977   0.990       .  S
O963        H984   0.990       .  S
O964        C968   1.289       .  A
O965        C968   1.276       .  A
O966        H976   0.990       .  S
O967        H980   0.990       .  S
C968       C3232   1.460       .  S
Zr991       O992   2.441       .  S
Zr991       O993   2.449       .  S
Zr991       O994   2.439       .  S
Zr991       O997   2.450       .  S
Zr991       O999   2.384       .  S
Zr991      O1000   2.387       .  S
Zr991      O1001   2.413       .  S
Zr991      O1002   2.403       .  S
O992       H1048   0.990       .  S
O992       H1056   0.991       .  S
O993       C1013   1.285       .  A
O994       C1015   1.284       .  A
O995      Zr1005   2.383       .  S
O995       C1014   1.276       .  A
O996      Zr1004   2.437       .  S
O996       C1015   1.285       .  A
O997       C1014   1.286       .  A
O998      Zr1006   2.438       .  S
O998       C1013   1.284       .  A
O999      Zr1004   2.400       .  S
O999      Zr1006   2.381       .  S
O1000     Zr1005   2.381       .  S
O1000     Zr1006   2.370       .  S
O1000      H1035   0.966       .  S
O1001     Zr1004   2.409       .  S
O1001     Zr1021   2.387       .  S
O1001      H1038   0.964       .  S
O1002     Zr1005   2.387       .  S
O1002     Zr1021   2.384       .  S
Zr1003     O1028   2.444       .  S
Zr1003     O1022   2.465       .  S
Zr1003     O1030   2.461       .  S
Zr1003     O1018   2.443       .  S
Zr1003     O1009   2.418       .  S
Zr1003     O1010   2.420       .  S
Zr1003     O1011   2.378       .  S
Zr1003     O1012   2.381       .  S
Zr1004     O1023   2.438       .  S
Zr1004     O1016   2.434       .  S
Zr1004     O1017   2.448       .  S
Zr1004     O1010   2.400       .  S
Zr1004     O1011   2.390       .  S
Zr1005     O1007   2.438       .  S
Zr1005     O1029   2.438       .  S
Zr1005     O1031   2.392       .  S
Zr1005     O1009   2.376       .  S
Zr1005     O1012   2.391       .  S
Zr1006     O1032   2.435       .  S
Zr1006     O1033   2.435       .  S
Zr1006     O1008   2.435       .  S
Zr1006     O1009   2.406       .  S
Zr1006     O1010   2.400       .  S
O1007      H1044   0.991       .  S
O1008      H1039   0.990       .  S
O1008      H1053   0.990       .  S
O1010      H1036   0.965       .  S
O1011     Zr1021   2.377       .  S
O1012     Zr1021   2.366       .  S
O1012      H1037   0.966       .  S
C1013      C3139   1.481       .  S
C1014      C3152   1.465       .  S
C1015      C3203   1.470       .  S
O1016      H1052   0.990       .  S
O1017      C1019   1.287       .  A
O1018      C1019   1.287       .  A
C1019      C3120   1.477       .  S
O1020     Zr1021   2.437       .  S
O1020      H1049   0.991       .  S
Zr1021     O1024   2.435       .  S
Zr1021     O1025   2.441       .  S
Zr1021     O1026   2.410       .  S
O1022      C1027   1.289       .  A
O1023      H1040   0.990       .  S
O1023      H1055   0.990       .  S
O1024      H1041   0.990       .  S
O1025      H1045   0.990       .  S
O1025      H1054   0.990       .  S
O1026      C1027   1.279       .  A
C1027      C3331   1.472       .  S
O1028      H1047   0.991       .  S
O1028      H1051   0.990       .  S
O1029      H1043   0.990       .  S
O1029      H1050   0.990       .  S
O1030      C1034   1.289       .  A
O1031      C1034   1.276       .  A
O1032      H1042   0.990       .  S
O1033      H1046   0.990       .  S
C1034      C3104   1.469       .  S
Zr1057     O1058   2.442       .  S
Zr1057     O1059   2.449       .  S
Zr1057     O1060   2.431       .  S
Zr1057     O1063   2.446       .  S
Zr1057     O1065   2.387       .  S
Zr1057     O1066   2.384       .  S
Zr1057     O1067   2.417       .  S
Zr1057     O1068   2.397       .  S
O1058      H1114   0.990       .  S
O1058      H1122   0.991       .  S
O1059      C1079   1.285       .  A
O1060      C1081   1.283       .  A
O1061     Zr1071   2.396       .  S
O1061      C1080   1.279       .  A
O1062     Zr1070   2.444       .  S
O1062      C1081   1.285       .  A
O1063      C1080   1.285       .  A
O1064     Zr1072   2.428       .  S
O1064      C1079   1.282       .  A
O1065     Zr1070   2.396       .  S
O1065     Zr1072   2.383       .  S
O1066     Zr1071   2.377       .  S
O1066     Zr1072   2.375       .  S
O1066      H1101   0.966       .  S
O1067     Zr1070   2.408       .  S
O1067     Zr1087   2.382       .  S
O1067      H1104   0.964       .  S
O1068     Zr1071   2.382       .  S
O1068     Zr1087   2.389       .  S
Zr1069     O1094   2.445       .  S
Zr1069     O1088   2.451       .  S
Zr1069     O1096   2.457       .  S
Zr1069     O1084   2.437       .  S
Zr1069     O1075   2.409       .  S
Zr1069     O1076   2.415       .  S
Zr1069     O1077   2.383       .  S
Zr1069     O1078   2.383       .  S
Zr1070     O1089   2.436       .  S
Zr1070     O1082   2.433       .  S
Zr1070     O1083   2.442       .  S
Zr1070     O1076   2.396       .  S
Zr1070     O1077   2.394       .  S
Zr1071     O1073   2.436       .  S
Zr1071     O1095   2.438       .  S
Zr1071     O1097   2.381       .  S
Zr1071     O1075   2.378       .  S
Zr1071     O1078   2.392       .  S
Zr1072     O1098   2.436       .  S
Zr1072     O1099   2.436       .  S
Zr1072     O1074   2.436       .  S
Zr1072     O1075   2.397       .  S
Zr1072     O1076   2.397       .  S
O1073      H1110   0.990       .  S
O1074      H1105   0.990       .  S
O1074      H1119   0.990       .  S
O1076      H1102   0.965       .  S
O1077     Zr1087   2.379       .  S
O1078     Zr1087   2.372       .  S
O1078      H1103   0.967       .  S
C1079      C3040   1.478       .  S
C1080      C3072   1.468       .  S
C1081      C3088   1.467       .  S
O1082      H1118   0.990       .  S
O1083      C1085   1.286       .  A
O1084      C1085   1.286       .  A
C1085      C3059   1.474       .  S
O1086     Zr1087   2.440       .  S
O1086      H1115   0.990       .  S
Zr1087     O1090   2.437       .  S
Zr1087     O1091   2.441       .  S
Zr1087     O1092   2.420       .  S
O1088      C1093   1.286       .  A
O1089      H1106   0.990       .  S
O1089      H1121   0.990       .  S
O1090      H1107   0.990       .  S
O1091      H1111   0.990       .  S
O1091      H1120   0.990       .  S
O1092      C1093   1.281       .  A
C1093      C3267   1.468       .  S
O1094      H1113   0.990       .  S
O1094      H1117   0.990       .  S
O1095      H1109   0.990       .  S
O1095      H1116   0.990       .  S
O1096      C1100   1.289       .  A
O1097      C1100   1.275       .  A
O1098      H1108   0.990       .  S
O1099      H1112   0.990       .  S
C1100      C3107   1.465       .  S
Zr1123     O1124   2.442       .  S
Zr1123     O1125   2.438       .  S
Zr1123     O1126   2.426       .  S
Zr1123     O1129   2.445       .  S
Zr1123     O1131   2.383       .  S
Zr1123     O1132   2.381       .  S
Zr1123     O1133   2.419       .  S
Zr1123     O1134   2.396       .  S
O1124      H1180   0.990       .  S
O1124      H1188   0.990       .  S
O1125      C1145   1.283       .  A
O1126      C1147   1.282       .  A
O1127     Zr1137   2.389       .  S
O1127      C1146   1.277       .  A
O1128     Zr1136   2.443       .  S
O1128      C1147   1.285       .  A
O1129      C1146   1.285       .  A
O1130     Zr1138   2.430       .  S
O1130      C1145   1.282       .  A
O1131     Zr1136   2.396       .  S
O1131     Zr1138   2.383       .  S
O1132     Zr1137   2.379       .  S
O1132     Zr1138   2.375       .  S
O1132      H1167   0.967       .  S
O1133     Zr1136   2.403       .  S
O1133     Zr1153   2.382       .  S
O1133      H1170   0.963       .  S
O1134     Zr1137   2.386       .  S
O1134     Zr1153   2.391       .  S
Zr1135     O1160   2.439       .  S
Zr1135     O1154   2.447       .  S
Zr1135     O1162   2.459       .  S
Zr1135     O1150   2.439       .  S
Zr1135     O1141   2.408       .  S
Zr1135     O1142   2.416       .  S
Zr1135     O1143   2.383       .  S
Zr1135     O1144   2.376       .  S
Zr1136     O1155   2.436       .  S
Zr1136     O1148   2.434       .  S
Zr1136     O1149   2.445       .  S
Zr1136     O1142   2.399       .  S
Zr1136     O1143   2.394       .  S
Zr1137     O1139   2.437   1_556  S
Zr1137     O1161   2.438       .  S
Zr1137     O1163   2.393       .  S
Zr1137     O1141   2.380       .  S
Zr1137     O1144   2.387       .  S
Zr1138     O1164   2.437       .  S
Zr1138     O1165   2.436       .  S
Zr1138     O1140   2.436       .  S
Zr1138     O1141   2.399       .  S
Zr1138     O1142   2.396       .  S
O1139      H1176   0.990       .  S
O1140      H1171   0.990       .  S
O1140      H1185   0.990       .  S
O1142      H1168   0.966       .  S
O1143     Zr1153   2.379       .  S
O1144     Zr1153   2.364       .  S
O1144      H1169   0.967       .  S
C1145      C3008   1.475       .  S
C1146      C3027   1.464       .  S
C1147      C3091   1.462       .  S
O1148      H1184   0.990       .  S
O1149      C1151   1.287       .  A
O1150      C1151   1.286       .  A
C1151      C3475   1.476       .  S
O1152     Zr1153   2.439       .  S
O1152      H1181   0.990       .  S
Zr1153     O1156   2.437       .  S
Zr1153     O1157   2.440       .  S
Zr1153     O1158   2.419       .  S
O1154      C1159   1.285       .  A
O1155      H1172   0.990       .  S
O1155      H1187   0.990       .  S
O1156      H1173   0.990       .  S
O1157      H1177   0.990       .  S
O1157      H1186   0.990       .  S
O1158      C1159   1.281       .  A
C1159      C3187   1.468       .  S
O1160      H1179   0.990       .  S
O1160      H1183   0.990       .  S
O1161      H1175   0.990       .  S
O1161      H1182   0.990       .  S
O1162      C1166   1.290       .  A
O1163      C1166   1.277       .  A
O1164      H1174   0.990       .  S
O1165      H1178   0.990       .  S
C1166      C3280   1.469   1_556  S
Zr1189     O1190   2.445       .  S
Zr1189     O1191   2.434       .  S
Zr1189     O1192   2.443       .  S
Zr1189     O1195   2.443       .  S
Zr1189     O1197   2.380       .  S
Zr1189     O1198   2.392       .  S
Zr1189     O1199   2.410       .  S
Zr1189     O1200   2.395       .  S
O1190      H1246   0.991       .  S
O1190      H1254   0.991       .  S
O1191      C1211   1.283       .  A
O1192      C1213   1.283       .  A
O1193     Zr1203   2.443       .  S
O1193      C1212   1.287       .  A
O1194     Zr1202   2.404       .  S
O1194      C1213   1.279       .  A
O1195      C1212   1.286       .  A
O1196     Zr1204   2.441       .  S
O1196      C1211   1.284       .  A
O1197     Zr1202   2.385       .  S
O1197     Zr1204   2.370       .  S
O1198     Zr1203   2.402       .  S
O1198     Zr1204   2.386       .  S
O1198      H1233   0.965       .  S
O1199     Zr1202   2.401       .  S
O1199     Zr1219   2.402       .  S
O1199      H1236   0.969       .  S
O1200     Zr1203   2.387       .  S
O1200     Zr1219   2.381       .  S
Zr1201     O1226   2.441       .  S
Zr1201     O1220   2.460       .  S
Zr1201     O1228   2.426       .  S
Zr1201     O1216   2.455       .  S
Zr1201     O1207   2.411       .  S
Zr1201     O1208   2.415       .  S
Zr1201     O1209   2.368       .  S
Zr1201     O1210   2.385       .  S
Zr1202     O1221   2.436       .  S
Zr1202     O1214   2.435       .  S
Zr1202     O1215   2.408       .  S
Zr1202     O1208   2.389       .  S
Zr1202     O1209   2.385       .  S
Zr1203     O1205   2.435       .  S
Zr1203     O1227   2.437       .  S
Zr1203     O1229   2.453       .  S
Zr1203     O1207   2.389       .  S
Zr1203     O1210   2.393       .  S
Zr1204     O1230   2.436       .  S
Zr1204     O1231   2.434       .  S
Zr1204     O1206   2.436       .  S
Zr1204     O1207   2.399       .  S
Zr1204     O1208   2.412       .  S
O1205      H1242   0.990       .  S
O1206      H1237   0.991       .  S
O1206      H1251   0.990       .  S
O1208      H1234   0.964       .  S
O1209     Zr1219   2.365       .  S
O1210     Zr1219   2.385       .  S
O1210      H1235   0.966       .  S
C1211      C3296   1.481       .  S
C1212      C2976   1.475       .  S
C1213      C3075   1.466       .  S
O1214      H1250   0.990       .  S
O1215      C1217   1.280       .  A
O1216      C1217   1.289       .  A
C1217      C2944   1.471       .  S
O1218     Zr1219   2.439       .  S
O1218      H1247   0.990       .  S
Zr1219     O1222   2.437       .  S
Zr1219     O1223   2.439       .  S
Zr1219     O1224   2.420       .  S
O1220      C1225   1.287       .  A
O1221      H1238   0.990       .  S
O1221      H1253   0.990       .  S
O1222      H1239   0.990       .  S
O1223      H1243   0.990       .  S
O1223      H1252   0.991       .  S
O1224      C1225   1.281       .  A
C1225      C2992   1.471       .  S
O1226      H1245   0.991       .  S
O1226      H1249   0.990       .  S
O1227      H1241   0.990       .  S
O1227      H1248   0.990       .  S
O1228      C1232   1.283       .  A
O1229      C1232   1.287       .  A
O1230      H1240   0.990       .  S
O1231      H1244   0.990       .  S
C1232      C2960   1.476       .  S
Zr1255     O1256   2.442       .  S
Zr1255     O1257   2.422       .  S
Zr1255     O1258   2.454       .  S
Zr1255     O1261   2.433       .  S
Zr1255     O1263   2.377       .  S
Zr1255     O1264   2.388       .  S
Zr1255     O1265   2.406       .  S
Zr1255     O1266   2.397       .  S
O1256      H1312   0.991       .  S
O1256      H1320   0.990       .  S
O1257      C1277   1.280       .  A
O1258      C1279   1.286       .  A
O1259     Zr1269   2.443       .  S
O1259      C1278   1.287       .  A
O1260     Zr1268   2.383       .  S
O1260      C1279   1.276       .  A
O1261      C1278   1.284       .  A
O1262     Zr1270   2.444       .  S
O1262      C1277   1.284       .  A
O1263     Zr1268   2.394       .  S
O1263     Zr1270   2.371       .  S
O1264     Zr1269   2.397       .  S
O1264     Zr1270   2.379       .  S
O1264      H1299   0.963       .  S
O1265     Zr1268   2.401       .  S
O1265     Zr1285   2.398       .  S
O1265      H1302   0.963       .  S
O1266     Zr1269   2.392       .  S
O1266     Zr1285   2.382       .  S
Zr1267     O1292   2.443       .  S
Zr1267     O1286   2.442       .  S
Zr1267     O1294   2.421       .  S
Zr1267     O1282   2.453       .  S
Zr1267     O1273   2.410       .  S
Zr1267     O1274   2.410       .  S
Zr1267     O1275   2.370       .  S
Zr1267     O1276   2.385       .  S
Zr1268     O1287   2.439       .  S
Zr1268     O1280   2.436       .  S
Zr1268     O1281   2.407       .  S
Zr1268     O1274   2.385       .  S
Zr1268     O1275   2.380       .  S
Zr1269     O1271   2.434       .  S
Zr1269     O1293   2.439       .  S
Zr1269     O1295   2.455       .  S
Zr1269     O1273   2.388       .  S
Zr1269     O1276   2.385       .  S
Zr1270     O1296   2.436       .  S
Zr1270     O1297   2.434       .  S
Zr1270     O1272   2.437       .  S
Zr1270     O1273   2.402       .  S
Zr1270     O1274   2.412       .  S
O1271      H1308   0.990       .  S
O1272      H1303   0.990       .  S
O1272      H1317   0.990       .  S
O1274      H1300   0.966       .  S
O1275     Zr1285   2.373       .  S
O1276     Zr1285   2.379       .  S
O1276      H1301   0.965       .  S
C1277      C3123   1.472       .  S
C1278      C2979   1.470       .  S
C1279      C3024   1.464       .  S
O1280      H1316   0.990       .  S
O1281      C1283   1.279       .  A
O1282      C1283   1.288       .  A
C1283      C2915   1.476   1_554  S
O1284     Zr1285   2.439       .  S
O1284      H1313   0.990       .  S
Zr1285     O1288   2.436       .  S
Zr1285     O1289   2.440       .  S
Zr1285     O1290   2.421       .  S
O1286      C1291   1.284       .  A
O1287      H1304   0.990       .  S
O1287      H1319   0.990       .  S
O1288      H1305   0.990       .  S
O1289      H1309   0.990       .  S
O1289      H1318   0.990       .  S
O1290      C1291   1.282       .  A
C1291      C2931   1.464       .  S
O1292      H1311   0.990       .  S
O1292      H1315   0.990       .  S
O1293      H1307   0.990       .  S
O1293      H1314   0.990       .  S
O1294      C1298   1.283       .  A
O1295      C1298   1.289       .  A
O1296      H1306   0.990       .  S
O1297      H1310   0.990       .  S
C1298      C3683   1.475       .  S
Zr1321     O1322   2.440       .  S
Zr1321     O1323   2.426       .  S
Zr1321     O1324   2.462       .  S
Zr1321     O1327   2.442       .  S
Zr1321     O1329   2.374       .  S
Zr1321     O1330   2.390       .  S
Zr1321     O1331   2.405       .  S
Zr1321     O1332   2.395       .  S
O1322      H1378   0.991       .  S
O1322      H1386   0.990       .  S
O1323      C1343   1.283       .  A
O1324      C1345   1.287       .  A
O1325     Zr1335   2.451       .  S
O1325      C1344   1.289       .  A
O1326     Zr1334   2.382       .  S
O1326      C1345   1.275       .  A
O1327      C1344   1.285       .  A
O1328     Zr1336   2.446       .  S
O1328      C1343   1.285       .  A
O1329     Zr1334   2.385       .  S
O1329     Zr1336   2.377       .  S
O1330     Zr1335   2.394       .  S
O1330     Zr1336   2.383       .  S
O1330      H1365   0.964       .  S
O1331     Zr1334   2.387       .  S
O1331     Zr1351   2.405       .  S
O1331      H1368   0.964       .  S
O1332     Zr1335   2.384       .  S
O1332     Zr1351   2.376       .  S
Zr1333     O1358   2.440       .  S
Zr1333     O1352   2.453       .  S
Zr1333     O1360   2.436       .  S
Zr1333     O1348   2.480       .  S
Zr1333     O1339   2.411       .  S
Zr1333     O1340   2.407       .  S
Zr1333     O1341   2.374       .  S
Zr1333     O1342   2.392       .  S
Zr1334     O1353   2.438       .  S
Zr1334     O1346   2.434       .  S
Zr1334     O1347   2.384       .  S
Zr1334     O1340   2.386       .  S
Zr1334     O1341   2.383       .  S
Zr1335     O1337   2.435       .  S
Zr1335     O1359   2.438       .  S
Zr1335     O1361   2.451       .  S
Zr1335     O1339   2.391       .  S
Zr1335     O1342   2.388       .  S
Zr1336     O1362   2.436       .  S
Zr1336     O1363   2.436       .  S
Zr1336     O1338   2.435       .  S
Zr1336     O1339   2.391       .  S
Zr1336     O1340   2.411       .  S
O1337      H1374   0.990       .  S
O1338      H1369   0.990       .  S
O1338      H1383   0.990       .  S
O1340      H1366   0.967       .  S
O1341     Zr1351   2.369       .  S
O1342     Zr1351   2.382       .  S
O1342      H1367   0.964       .  S
C1343      C3971   1.480       .  S
C1344      C2896   1.475       .  S
C1345      C3715   1.470       .  S
O1346      H1382   0.990       .  S
O1347      C1349   1.275       .  A
O1348      C1349   1.293       .  A
C1349      C2864   1.477       .  S
O1350     Zr1351   2.439       .  S
O1350      H1379   0.990       .  S
Zr1351     O1354   2.437       .  S
Zr1351     O1355   2.439       .  S
Zr1351     O1356   2.421       .  S
O1352      C1357   1.287       .  A
O1353      H1370   0.990       .  S
O1353      H1385   0.990       .  S
O1354      H1371   0.990       .  S
O1355      H1375   0.990       .  S
O1355      H1384   0.990       .  S
O1356      C1357   1.283       .  A
C1357      C2995   1.474       .  S
O1358      H1377   0.990       .  S
O1358      H1381   0.991       .  S
O1359      H1373   0.990       .  S
O1359      H1380   0.990       .  S
O1360      C1364   1.286       .  A
O1361      C1364   1.288       .  A
O1362      H1372   0.990       .  S
O1363      H1376   0.991       .  S
C1364      C2880   1.480       .  S
Zr1387     O1388   2.441       .  S
Zr1387     O1389   2.428       .  S
Zr1387     O1390   2.451       .  S
Zr1387     O1393   2.432       .  S
Zr1387     O1395   2.377       .  S
Zr1387     O1396   2.392       .  S
Zr1387     O1397   2.409       .  S
Zr1387     O1398   2.398       .  S
O1388      H1444   0.991       .  S
O1388      H1452   0.990       .  S
O1389      C1409   1.282       .  A
O1390      C1411   1.285       .  A
O1391     Zr1401   2.448       .  S
O1391      C1410   1.287       .  A
O1392     Zr1400   2.398       .  S
O1392      C1411   1.278       .  A
O1393      C1410   1.284       .  A
O1394     Zr1402   2.448       .  S
O1394      C1409   1.285       .  A
O1395     Zr1400   2.390       .  S
O1395     Zr1402   2.372       .  S
O1396     Zr1401   2.394       .  S
O1396     Zr1402   2.383       .  S
O1396      H1431   0.963       .  S
O1397     Zr1400   2.397       .  S
O1397     Zr1417   2.398       .  S
O1397      H1434   0.966       .  S
O1398     Zr1401   2.390       .  S
O1398     Zr1417   2.378       .  S
Zr1399     O1424   2.442       .  S
Zr1399     O1418   2.457       .  S
Zr1399     O1426   2.429       .  S
Zr1399     O1414   2.462       .  S
Zr1399     O1405   2.418       .  S
Zr1399     O1406   2.412       .  S
Zr1399     O1407   2.376       .  S
Zr1399     O1408   2.391       .  S
Zr1400     O1419   2.436       .  S
Zr1400     O1412   2.436       .  S
Zr1400     O1413   2.413       .  S
Zr1400     O1406   2.388       .  S
Zr1400     O1407   2.383       .  S
Zr1401     O1403   2.436       .  S
Zr1401     O1425   2.437       .  S
Zr1401     O1427   2.449       .  S
Zr1401     O1405   2.392       .  S
Zr1401     O1408   2.393       .  S
Zr1402     O1428   2.437       .  S
Zr1402     O1429   2.434       .  S
Zr1402     O1404   2.436       .  S
Zr1402     O1405   2.409       .  S
Zr1402     O1406   2.411       .  S
O1403      H1440   0.990       .  S
O1404      H1435   0.990       .  S
O1404      H1449   0.990       .  S
O1406      H1432   0.965       .  S
O1407     Zr1417   2.375       .  S
O1408     Zr1417   2.381       .  S
O1408      H1433   0.966       .  S
C1409      C3827   1.478       .  S
C1410      C2899   1.472       .  S
C1411      C3779   1.470       .  S
O1412      H1448   0.990       .  S
O1413      C1415   1.282       .  A
O1414      C1415   1.289       .  A
C1415      C2912   1.481       .  S
O1416     Zr1417   2.435       .  S
O1416      H1445   0.991       .  S
Zr1417     O1420   2.437       .  S
Zr1417     O1421   2.439       .  S
Zr1417     O1422   2.413       .  S
O1418      C1423   1.288       .  A
O1419      H1436   0.990       .  S
O1419      H1451   0.990       .  S
O1420      H1437   0.990       .  S
O1421      H1441   0.990       .  S
O1421      H1450   0.990       .  S
O1422      C1423   1.279       .  A
C1423      C2851   1.468       .  S
O1424      H1443   0.990       .  S
O1424      H1447   0.990       .  S
O1425      H1439   0.990       .  S
O1425      H1446   0.990       .  S
O1426      C1430   1.284       .  A
O1427      C1430   1.287       .  A
O1428      H1438   0.990       .  S
O1429      H1442   0.990       .  S
C1430      C3043   1.477       .  S
Zr1453     O1454   2.442       .  S
Zr1453     O1455   2.431       .  S
Zr1453     O1456   2.458       .  S
Zr1453     O1459   2.430       .  S
Zr1453     O1461   2.376       .  S
Zr1453     O1462   2.394       .  S
Zr1453     O1463   2.406       .  S
Zr1453     O1464   2.394       .  S
O1454      H1510   0.990       .  S
O1454      H1518   0.991       .  S
O1455      C1475   1.283       .  A
O1456      C1477   1.286       .  A
O1457     Zr1467   2.449   1_556  S
O1457      C1476   1.287       .  A
O1458     Zr1466   2.383       .  S
O1458      C1477   1.274       .  A
O1459      C1476   1.284   1_554  A
O1460     Zr1468   2.443       .  S
O1460      C1475   1.284       .  A
O1461     Zr1466   2.387       .  S
O1461     Zr1468   2.372       .  S
O1462     Zr1467   2.396       .  S
O1462     Zr1468   2.380       .  S
O1462      H1497   0.965       .  S
O1463     Zr1466   2.391       .  S
O1463     Zr1483   2.400       .  S
O1463      H1500   0.964       .  S
O1464     Zr1467   2.390       .  S
O1464     Zr1483   2.378       .  S
Zr1465     O1490   2.441       .  S
Zr1465     O1484   2.455       .  S
Zr1465     O1492   2.423       .  S
Zr1465     O1480   2.482       .  S
Zr1465     O1471   2.421       .  S
Zr1465     O1472   2.409       .  S
Zr1465     O1473   2.370       .  S
Zr1465     O1474   2.391       .  S
Zr1466     O1485   2.438       .  S
Zr1466     O1478   2.435       .  S
Zr1466     O1479   2.388       .  S
Zr1466     O1472   2.386       .  S
Zr1466     O1473   2.382       .  S
Zr1467     O1469   2.436   1_554  S
Zr1467     O1491   2.436   1_554  S
Zr1467     O1493   2.452       .  S
Zr1467     O1471   2.395       .  S
Zr1467     O1474   2.384       .  S
Zr1468     O1494   2.437       .  S
Zr1468     O1495   2.435       .  S
Zr1468     O1470   2.436       .  S
Zr1468     O1471   2.400       .  S
Zr1468     O1472   2.412       .  S
O1469      H1506   0.990       .  S
O1470      H1501   0.990       .  S
O1470      H1515   0.990       .  S
O1472      H1498   0.965       .  S
O1473     Zr1483   2.371       .  S
O1474     Zr1483   2.380       .  S
O1474      H1499   0.965       .  S
C1475      C2803   1.480       .  S
C1476      C2816   1.466       .  S
C1477      C2835   1.465       .  S
O1478      H1514   0.990       .  S
O1479      C1481   1.275       .  A
O1480      C1481   1.293       .  A
C1481      C2867   1.479       .  S
O1482     Zr1483   2.439       .  S
O1482      H1511   0.990       .  S
Zr1483     O1486   2.436       .  S
Zr1483     O1487   2.440       .  S
Zr1483     O1488   2.411       .  S
O1484      C1489   1.287       .  A
O1485      H1502   0.990       .  S
O1485      H1517   0.990       .  S
O1486      H1503   0.990       .  S
O1487      H1507   0.990       .  S
O1487      H1516   0.990       .  S
O1488      C1489   1.282       .  A
C1489      C2928   1.470       .  S
O1490      H1509   0.990       .  S
O1490      H1513   0.990       .  S
O1491      H1505   0.990       .  S
O1491      H1512   0.990       .  S
O1492      C1496   1.284       .  A
O1493      C1496   1.288       .  A
O1494      H1504   0.990       .  S
O1495      H1508   0.990       .  S
C1496      C3728   1.476       .  S
Zr1519     O1520   2.443       .  S
Zr1519     O1521   2.437       .  S
Zr1519     O1522   2.463       .  S
Zr1519     O1525   2.429       .  S
Zr1519     O1527   2.375       .  S
Zr1519     O1528   2.395       .  S
Zr1519     O1529   2.403       .  S
Zr1519     O1530   2.401       .  S
O1520      H1576   0.990       .  S
O1520      H1584   0.991       .  S
O1521      C1541   1.283       .  A
O1522      C1543   1.287       .  A
O1523     Zr1533   2.445       .  S
O1523      C1542   1.286       .  A
O1524     Zr1532   2.399       .  S
O1524      C1543   1.278       .  A
O1525      C1542   1.284       .  A
O1526     Zr1534   2.437       .  S
O1526      C1541   1.284       .  A
O1527     Zr1532   2.386       .  S
O1527     Zr1534   2.376       .  S
O1528     Zr1533   2.396       .  S
O1528     Zr1534   2.381       .  S
O1528      H1563   0.966       .  S
O1529     Zr1532   2.393       .  S
O1529     Zr1549   2.404       .  S
O1529      H1566   0.966       .  S
O1530     Zr1533   2.394       .  S
O1530     Zr1549   2.387       .  S
Zr1531     O1556   2.441       .  S
Zr1531     O1550   2.449       .  S
Zr1531     O1558   2.443       .  S
Zr1531     O1546   2.464       .  S
Zr1531     O1537   2.414       .  S
Zr1531     O1538   2.411       .  S
Zr1531     O1539   2.377       .  S
Zr1531     O1540   2.388       .  S
Zr1532     O1551   2.437       .  S
Zr1532     O1544   2.438       .  S
Zr1532     O1545   2.402       .  S
Zr1532     O1538   2.389       .  S
Zr1532     O1539   2.388       .  S
Zr1533     O1535   2.434       .  S
Zr1533     O1557   2.438       .  S
Zr1533     O1559   2.448       .  S
Zr1533     O1537   2.390       .  S
Zr1533     O1540   2.392       .  S
Zr1534     O1560   2.437       .  S
Zr1534     O1561   2.435       .  S
Zr1534     O1536   2.437       .  S
Zr1534     O1537   2.399       .  S
Zr1534     O1538   2.408       .  S
O1535      H1572   0.990       .  S
O1536      H1567   0.991       .  S
O1536      H1581   0.990       .  S
O1538      H1564   0.965       .  S
O1539     Zr1549   2.368       .  S
O1540     Zr1549   2.381       .  S
O1540      H1565   0.964       .  S
C1541      C2768   1.477       .  S
C1542      C2819   1.469       .  S
C1543      C2784   1.476       .  S
O1544      H1580   0.990       .  S
O1545      C1547   1.279       .  A
O1546      C1547   1.289       .  A
C1547      C2947   1.473       .  S
O1548     Zr1549   2.441       .  S
O1548      H1577   0.991       .  S
Zr1549     O1552   2.438       .  S
Zr1549     O1553   2.439       .  S
Zr1549     O1554   2.432       .  S
O1550      C1555   1.286       .  A
O1551      H1568   0.990       .  S
O1551      H1583   0.990       .  S
O1552      H1569   0.990       .  S
O1553      H1573   0.990       .  S
O1553      H1582   0.990       .  S
O1554      C1555   1.283       .  A
C1555      C2848   1.473       .  S
O1556      H1575   0.990       .  S
O1556      H1579   0.990       .  S
O1557      H1571   0.990       .  S
O1557      H1578   0.990       .  S
O1558      C1562   1.287       .  A
O1559      C1562   1.287       .  A
O1560      H1570   0.990       .  S
O1561      H1574   0.990       .  S
C1562      C3011   1.482       .  S
Zr1585     O1586   2.441       .  S
Zr1585     O1587   2.434       .  S
Zr1585     O1588   2.457       .  S
Zr1585     O1591   2.450       .  S
Zr1585     O1593   2.374       .  S
Zr1585     O1594   2.390       .  S
Zr1585     O1595   2.410       .  S
Zr1585     O1596   2.394       .  S
O1586      H1642   0.991       .  S
O1586      H1650   0.990       .  S
O1587      C1607   1.283       .  A
O1588      C1609   1.287       .  A
O1589     Zr1599   2.437       .  S
O1589      C1608   1.285       .  A
O1590     Zr1598   2.387       .  S
O1590      C1609   1.275       .  A
O1591      C1608   1.287       .  A
O1592     Zr1600   2.451       .  S
O1592      C1607   1.285       .  A
O1593     Zr1598   2.388       .  S
O1593     Zr1600   2.367       .  S
O1594     Zr1599   2.402       .  S
O1594     Zr1600   2.381       .  S
O1594      H1629   0.965       .  S
O1595     Zr1598   2.398       .  S
O1595     Zr1615   2.395       .  S
O1595      H1632   0.968       .  S
O1596     Zr1599   2.393       .  S
O1596     Zr1615   2.383       .  S
Zr1597     O1622   2.442       .  S
Zr1597     O1616   2.465       .  S
Zr1597     O1624   2.424       .  S
Zr1597     O1612   2.461       .  S
Zr1597     O1603   2.416       .  S
Zr1597     O1604   2.414       .  S
Zr1597     O1605   2.374       .  S
Zr1597     O1606   2.384       .  S
Zr1598     O1617   2.438       .  S
Zr1598     O1610   2.436       .  S
Zr1598     O1611   2.406       .  S
Zr1598     O1604   2.382       .  S
Zr1598     O1605   2.383       .  S
Zr1599     O1601   2.436       .  S
Zr1599     O1623   2.436       .  S
Zr1599     O1625   2.459       .  S
Zr1599     O1603   2.389       .  S
Zr1599     O1606   2.381       .  S
Zr1600     O1626   2.435       .  S
Zr1600     O1627   2.434       .  S
Zr1600     O1602   2.439       .  S
Zr1600     O1603   2.408       .  S
Zr1600     O1604   2.415       .  S
O1601      H1638   0.990       .  S
O1602      H1633   0.990       .  S
O1602      H1647   0.991       .  S
O1604      H1630   0.964       .  S
O1605     Zr1615   2.369       .  S
O1606     Zr1615   2.382       .  S
O1606      H1631   0.966       .  S
C1607      C2707   1.486       .  S
C1608      C2720   1.471       .  S
C1609      C2755   1.461       .  S
O1610      H1646   0.990       .  S
O1611      C1613   1.281       .  A
O1612      C1613   1.289       .  A
C1613      C2688   1.480   1_554  S
O1614     Zr1615   2.440       .  S
O1614      H1643   0.990       .  S
Zr1615     O1618   2.438       .  S
Zr1615     O1619   2.438       .  S
Zr1615     O1620   2.418       .  S
O1616      C1621   1.289       .  A
O1617      H1634   0.990       .  S
O1617      H1649   0.990   1_554  S
O1618      H1635   0.990       .  S
O1619      H1639   0.990       .  S
O1619      H1648   0.991       .  S
O1620      C1621   1.283       .  A
C1621      C2739   1.478       .  S
O1622      H1641   0.990       .  S
O1622      H1645   0.990       .  S
O1623      H1637   0.990       .  S
O1623      H1644   0.990       .  S
O1624      C1628   1.283       .  A
O1625      C1628   1.290       .  A
O1626      H1636   0.990       .  S
O1627      H1640   0.990       .  S
C1628      C3136   1.482       .  S
Zr1651     O1652   2.441       .  S
Zr1651     O1653   2.429       .  S
Zr1651     O1654   2.463       .  S
Zr1651     O1657   2.443       .  S
Zr1651     O1659   2.380       .  S
Zr1651     O1660   2.396       .  S
Zr1651     O1661   2.407       .  S
Zr1651     O1662   2.391       .  S
O1652      H1708   0.990       .  S
O1652      H1716   0.991       .  S
O1653      C1673   1.284       .  A
O1654      C1675   1.288       .  A
O1655     Zr1665   2.447       .  S
O1655      C1674   1.288       .  A
O1656     Zr1664   2.389       .  S
O1656      C1675   1.276       .  A
O1657      C1674   1.287       .  A
O1658     Zr1666   2.446       .  S
O1658      C1673   1.286       .  A
O1659     Zr1664   2.388       .  S
O1659     Zr1666   2.369       .  S
O1660     Zr1665   2.393       .  S
O1660     Zr1666   2.379       .  S
O1660      H1695   0.964       .  S
O1661     Zr1664   2.387       .  S
O1661     Zr1681   2.400       .  S
O1661      H1698   0.966       .  S
O1662     Zr1665   2.386       .  S
O1662     Zr1681   2.369       .  S
Zr1663     O1688   2.444       .  S
Zr1663     O1682   2.462       .  S
Zr1663     O1690   2.434       .  S
Zr1663     O1678   2.453       .  S
Zr1663     O1669   2.417       .  S
Zr1663     O1670   2.414       .  S
Zr1663     O1671   2.382       .  S
Zr1663     O1672   2.381       .  S
Zr1664     O1683   2.434       .  S
Zr1664     O1676   2.435       .  S
Zr1664     O1677   2.404       .  S
Zr1664     O1670   2.385       .  S
Zr1664     O1671   2.383       .  S
Zr1665     O1667   2.434       .  S
Zr1665     O1689   2.437       .  S
Zr1665     O1691   2.462       .  S
Zr1665     O1669   2.389       .  S
Zr1665     O1672   2.382       .  S
Zr1666     O1692   2.434       .  S
Zr1666     O1693   2.434       .  S
Zr1666     O1668   2.437       .  S
Zr1666     O1669   2.404       .  S
Zr1666     O1670   2.405       .  S
O1667      H1704   0.990       .  S
O1668      H1699   0.990       .  S
O1668      H1713   0.990       .  S
O1670      H1696   0.964       .  S
O1671     Zr1681   2.377       .  S
O1672     Zr1681   2.382       .  S
O1672      H1697   0.965       .  S
C1673      C2643   1.477       .  S
C1674      C2723   1.477       .  S
C1675      C2656   1.471       .  S
O1676      H1712   0.990       .  S
O1677      C1679   1.279       .  A
O1678      C1679   1.288       .  A
C1679      C2624   1.474       .  S
O1680     Zr1681   2.437       .  S
O1680      H1709   0.990       .  S
Zr1681     O1684   2.437       .  S
Zr1681     O1685   2.438       .  S
Zr1681     O1686   2.404       .  S
O1682      C1687   1.289       .  A
O1683      H1700   0.990       .  S
O1683      H1715   0.990       .  S
O1684      H1701   0.990       .  S
O1685      H1705   0.990       .  S
O1685      H1714   0.990       .  S
O1686      C1687   1.279       .  A
C1687      C2675   1.471       .  S
O1688      H1707   0.990       .  S
O1688      H1711   0.990       .  S
O1689      H1703   0.990       .  S
O1689      H1710   0.990       .  S
O1690      C1694   1.285       .  A
O1691      C1694   1.290       .  A
O1692      H1702   0.990       .  S
O1693      H1706   0.990       .  S
C1694      C4032   1.485       .  S
Zr1717     O1718   2.439       .  S
Zr1717     O1719   2.421       .  S
Zr1717     O1720   2.463       .  S
Zr1717     O1723   2.423   1_554  S
Zr1717     O1725   2.372       .  S
Zr1717     O1726   2.391       .  S
Zr1717     O1727   2.399       .  S
Zr1717     O1728   2.398       .  S
O1718      H1774   0.990       .  S
O1718      H1782   0.990       .  S
O1719      C1739   1.282       .  A
O1720      C1741   1.288       .  A
O1721     Zr1731   2.437   1_556  S
O1721      C1740   1.286       .  A
O1722     Zr1730   2.398       .  S
O1722      C1741   1.278       .  A
O1723      C1740   1.283       .  A
O1724     Zr1732   2.440       .  S
O1724      C1739   1.283       .  A
O1725     Zr1730   2.380       .  S
O1725     Zr1732   2.366       .  S
O1726     Zr1731   2.400       .  S
O1726     Zr1732   2.377       .  S
O1726      H1761   0.966       .  S
O1727     Zr1730   2.391       .  S
O1727     Zr1747   2.394       .  S
O1727      H1764   0.963       .  S
O1728     Zr1731   2.394       .  S
O1728     Zr1747   2.385       .  S
Zr1729     O1754   2.443   1_545  S
Zr1729     O1748   2.459       .  S
Zr1729     O1756   2.429   1_545  S
Zr1729     O1744   2.465       .  S
Zr1729     O1735   2.416       .  S
Zr1729     O1736   2.414       .  S
Zr1729     O1737   2.374       .  S
Zr1729     O1738   2.386       .  S
Zr1730     O1749   2.438       .  S
Zr1730     O1742   2.435       .  S
Zr1730     O1743   2.394       .  S
Zr1730     O1736   2.388       .  S
Zr1730     O1737   2.385       .  S
Zr1731     O1733   2.436   1_554  S
Zr1731     O1755   2.439   1_554  S
Zr1731     O1757   2.456       .  S
Zr1731     O1735   2.390       .  S
Zr1731     O1738   2.390       .  S
Zr1732     O1758   2.438       .  S
Zr1732     O1759   2.435       .  S
Zr1732     O1734   2.436       .  S
Zr1732     O1735   2.407       .  S
Zr1732     O1736   2.409       .  S
O1733      H1770   0.990       .  S
O1734      H1765   0.990       .  S
O1734      H1779   0.990       .  S
O1736      H1762   0.965       .  S
O1737     Zr1747   2.371       .  S
O1738     Zr1747   2.384       .  S
O1738      H1763   0.965       .  S
C1739      C3747   1.472       .  S
C1740      C2608   1.467       .  S
C1741      C4096   1.477       .  S
O1742      H1778   0.990       .  S
O1743      C1745   1.277       .  A
O1744      C1745   1.290       .  A
C1745      C2592   1.475       .  S
O1746     Zr1747   2.440       .  S
O1746      H1775   0.991       .  S
Zr1747     O1750   2.438       .  S
Zr1747     O1751   2.440       .  S
Zr1747     O1752   2.422       .  S
O1748      C1753   1.288       .  A
O1749      H1766   0.990       .  S
O1749      H1781   0.990       .  S
O1750      H1767   0.990       .  S
O1751      H1771   0.990       .  S
O1751      H1780   0.990       .  S
O1752      C1753   1.282       .  A
C1753      C2736   1.473   1_545  S
O1754      H1773   0.990       .  S
O1754      H1777   0.990   1_565  S
O1755      H1769   0.990       .  S
O1755      H1776   0.990       .  S
O1756      C1760   1.284       .  A
O1757      C1760   1.289   1_545  A
O1758      H1768   0.990       .  S
O1759      H1772   0.990       .  S
C1760      C3171   1.480       .  S
Zr1783     O1784   2.441       .  S
Zr1783     O1785   2.439       .  S
Zr1783     O1786   2.463       .  S
Zr1783     O1789   2.436       .  S
Zr1783     O1791   2.377       .  S
Zr1783     O1792   2.394       .  S
Zr1783     O1793   2.409       .  S
Zr1783     O1794   2.397       .  S
O1784      H1840   0.990       .  S
O1784      H1848   0.991       .  S
O1785      C1805   1.285       .  A
O1786      C1807   1.288       .  A
O1787     Zr1797   2.446       .  S
O1787      C1806   1.287       .  A
O1788     Zr1796   2.392       .  S
O1788      C1807   1.277       .  A
O1789      C1806   1.285       .  A
O1790     Zr1798   2.448       .  S
O1790      C1805   1.285       .  A
O1791     Zr1796   2.389       .  S
O1791     Zr1798   2.371       .  S
O1792     Zr1797   2.392       .  S
O1792     Zr1798   2.382       .  S
O1792      H1827   0.965       .  S
O1793     Zr1796   2.390       .  S
O1793     Zr1813   2.406       .  S
O1793      H1830   0.968       .  S
O1794     Zr1797   2.389       .  S
O1794     Zr1813   2.377       .  S
Zr1795     O1820   2.440       .  S
Zr1795     O1814   2.463       .  S
Zr1795     O1822   2.418       .  S
Zr1795     O1810   2.451       .  S
Zr1795     O1801   2.415       .  S
Zr1795     O1802   2.413       .  S
Zr1795     O1803   2.373       .  S
Zr1795     O1804   2.380       .  S
Zr1796     O1815   2.436       .  S
Zr1796     O1808   2.436       .  S
Zr1796     O1809   2.401       .  S
Zr1796     O1802   2.384       .  S
Zr1796     O1803   2.381       .  S
Zr1797     O1799   2.435       .  S
Zr1797     O1821   2.438       .  S
Zr1797     O1823   2.453       .  S
Zr1797     O1801   2.389       .  S
Zr1797     O1804   2.379       .  S
Zr1798     O1824   2.436       .  S
Zr1798     O1825   2.436       .  S
Zr1798     O1800   2.438       .  S
Zr1798     O1801   2.408       .  S
Zr1798     O1802   2.409       .  S
O1799      H1836   0.990       .  S
O1800      H1831   0.990       .  S
O1800      H1845   0.990       .  S
O1802      H1828   0.966       .  S
O1803     Zr1813   2.372       .  S
O1804     Zr1813   2.381       .  S
O1804      H1829   0.967       .  S
C1805      C3872   1.479       .  S
C1806      C2611   1.469       .  S
C1807      C3987   1.470       .  S
O1808      H1844   0.990       .  S
O1809      C1811   1.280       .  A
O1810      C1811   1.287       .  A
C1811      C2627   1.473       .  S
O1812     Zr1813   2.440       .  S
O1812      H1841   0.990       .  S
Zr1813     O1816   2.439       .  S
Zr1813     O1817   2.438       .  S
Zr1813     O1818   2.419       .  S
O1814      C1819   1.289       .  A
O1815      H1832   0.990       .  S
O1815      H1847   0.990       .  S
O1816      H1833   0.990       .  S
O1817      H1837   0.990       .  S
O1817      H1846   0.990       .  S
O1818      C1819   1.281       .  A
C1819      C2576   1.471       .  S
O1820      H1839   0.990       .  S
O1820      H1843   0.990       .  S
O1821      H1835   0.990       .  S
O1821      H1842   0.990       .  S
O1822      C1826   1.283       .  A
O1823      C1826   1.287       .  A
O1824      H1834   0.990       .  S
O1825      H1838   0.990       .  S
C1826      C2563   1.476       .  S
Zr1849     O1850   2.439       .  S
Zr1849     O1851   2.435       .  S
Zr1849     O1852   2.458       .  S
Zr1849     O1855   2.435       .  S
Zr1849     O1857   2.377       .  S
Zr1849     O1858   2.390       .  S
Zr1849     O1859   2.410       .  S
Zr1849     O1860   2.395       .  S
O1850      H1906   0.990       .  S
O1850      H1914   0.990       .  S
O1851      C1871   1.283       .  A
O1852      C1873   1.287       .  A
O1853     Zr1863   2.439       .  S
O1853      C1872   1.286       .  A
O1854     Zr1862   2.388       .  S
O1854      C1873   1.277       .  A
O1855      C1872   1.285       .  A
O1856     Zr1864   2.440       .  S
O1856      C1871   1.283       .  A
O1857     Zr1862   2.387       .  S
O1857     Zr1864   2.371       .  S
O1858     Zr1863   2.396       .  S
O1858     Zr1864   2.383       .  S
O1858      H1893   0.964       .  S
O1859     Zr1862   2.391       .  S
O1859     Zr1879   2.399       .  S
O1859      H1896   0.966       .  S
O1860     Zr1863   2.391       .  S
O1860     Zr1879   2.384       .  S
Zr1861     O1886   2.442   1_565  S
Zr1861     O1880   2.452   1_565  S
Zr1861     O1888   2.421   1_565  S
Zr1861     O1876   2.452       .  S
Zr1861     O1867   2.408       .  S
Zr1861     O1868   2.411       .  S
Zr1861     O1869   2.374       .  S
Zr1861     O1870   2.382       .  S
Zr1862     O1881   2.438       .  S
Zr1862     O1874   2.435       .  S
Zr1862     O1875   2.394       .  S
Zr1862     O1868   2.384       .  S
Zr1862     O1869   2.381       .  S
Zr1863     O1865   2.436       .  S
Zr1863     O1887   2.437       .  S
Zr1863     O1889   2.442   1_565  S
Zr1863     O1867   2.388       .  S
Zr1863     O1870   2.386       .  S
Zr1864     O1890   2.437       .  S
Zr1864     O1891   2.435       .  S
Zr1864     O1866   2.439       .  S
Zr1864     O1867   2.401       .  S
Zr1864     O1868   2.407       .  S
O1865      H1902   0.990       .  S
O1866      H1897   0.990       .  S
O1866      H1911   0.990       .  S
O1868      H1894   0.966       .  S
O1869     Zr1879   2.369       .  S
O1870     Zr1879   2.382       .  S
O1870      H1895   0.966       .  S
C1871      C3251   1.476       .  S
C1872      C2547   1.472       .  S
C1873      C3155   1.469       .  S
O1874      H1910   0.990       .  S
O1875      C1877   1.277       .  A
O1876      C1877   1.288       .  A
C1877      C2595   1.470       .  S
O1878     Zr1879   2.439       .  S
O1878      H1907   0.990       .  S
Zr1879     O1882   2.440       .  S
Zr1879     O1883   2.439       .  S
Zr1879     O1884   2.416       .  S
O1880      C1885   1.287       .  A
O1881      H1898   0.990       .  S
O1881      H1913   0.990       .  S
O1882      H1899   0.990       .  S
O1883      H1903   0.990       .  S
O1883      H1912   0.990       .  S
O1884      C1885   1.280   1_565  A
C1885      C2672   1.464       .  S
O1886      H1905   0.990       .  S
O1886      H1909   0.990       .  S
O1887      H1901   0.990       .  S
O1887      H1908   0.990       .  S
O1888      C1892   1.282       .  A
O1889      C1892   1.286       .  A
O1890      H1900   0.990       .  S
O1891      H1904   0.990       .  S
C1892      C3955   1.469       .  S
Zr1915     O1916   2.440       .  S
Zr1915     O1917   2.416       .  S
Zr1915     O1918   2.457       .  S
Zr1915     O1921   2.417       .  S
Zr1915     O1923   2.373       .  S
Zr1915     O1924   2.391       .  S
Zr1915     O1925   2.401       .  S
Zr1915     O1926   2.396       .  S
O1916      H1972   0.990       .  S
O1916      H1980   0.990       .  S
O1917      C1937   1.280       .  A
O1918      C1939   1.287       .  A
O1919     Zr1929   2.448       .  S
O1919      C1938   1.288       .  A
O1920     Zr1928   2.399       .  S
O1920      C1939   1.279       .  A
O1921      C1938   1.281       .  A
O1922     Zr1930   2.456       .  S
O1922      C1937   1.287       .  A
O1923     Zr1928   2.385       .  S
O1923     Zr1930   2.370       .  S
O1924     Zr1929   2.388       .  S
O1924     Zr1930   2.375       .  S
O1924      H1959   0.966       .  S
O1925     Zr1928   2.393       .  S
O1925     Zr1945   2.406       .  S
O1925      H1962   0.965       .  S
O1926     Zr1929   2.388       .  S
O1926     Zr1945   2.377       .  S
Zr1927     O1952   2.441       .  S
Zr1927     O1946   2.461       .  S
Zr1927     O1954   2.415       .  S
Zr1927     O1942   2.465       .  S
Zr1927     O1933   2.419       .  S
Zr1927     O1934   2.412       .  S
Zr1927     O1935   2.368       .  S
Zr1927     O1936   2.385       .  S
Zr1928     O1947   2.437       .  S
Zr1928     O1940   2.437       .  S
Zr1928     O1941   2.400       .  S
Zr1928     O1934   2.389       .  S
Zr1928     O1935   2.387       .  S
Zr1929     O1931   2.435       .  S
Zr1929     O1953   2.437       .  S
Zr1929     O1955   2.456       .  S
Zr1929     O1933   2.391       .  S
Zr1929     O1936   2.386       .  S
Zr1930     O1956   2.437       .  S
Zr1930     O1957   2.435       .  S
Zr1930     O1932   2.436       .  S
Zr1930     O1933   2.407       .  S
Zr1930     O1934   2.418       .  S
O1931      H1968   0.990       .  S
O1932      H1963   0.990       .  S
O1932      H1977   0.990       .  S
O1934      H1960   0.965       .  S
O1935     Zr1945   2.375       .  S
O1936     Zr1945   2.379       .  S
O1936      H1961   0.966       .  S
C1937      C3056   1.474       .  S
C1938      C2544   1.466       .  S
C1939      C3219   1.476       .  S
O1940      H1976   0.990       .  S
O1941      C1943   1.279       .  A
O1942      C1943   1.290       .  A
C1943      C2691   1.479       .  S
O1944     Zr1945   2.438       .  S
O1944      H1973   0.990       .  S
Zr1945     O1948   2.437       .  S
Zr1945     O1949   2.441       .  S
Zr1945     O1950   2.423       .  S
O1946      C1951   1.288       .  A
O1947      H1964   0.990       .  S
O1947      H1979   0.990       .  S
O1948      H1965   0.990       .  S
O1949      H1969   0.990       .  S
O1949      H1978   0.990       .  S
O1950      C1951   1.282       .  A
C1951      C2579   1.472       .  S
O1952      H1971   0.991       .  S
O1952      H1975   0.989       .  S
O1953      H1967   0.990       .  S
O1953      H1974   0.990       .  S
O1954      C1958   1.282       .  A
O1955      C1958   1.289       .  A
O1956      H1966   0.990       .  S
O1957      H1970   0.990       .  S
C1958      C2528   1.476       .  S
Zr1981     O1982   2.443       .  S
Zr1981     O1983   2.444       .  S
Zr1981     O1984   2.430       .  S
Zr1981     O1987   2.448       .  S
Zr1981     O1989   2.389       .  S
Zr1981     O1990   2.379       .  S
Zr1981     O1991   2.412       .  S
Zr1981     O1992   2.401       .  S
O1982      H2038   0.990       .  S
O1982      H2046   0.991       .  S
O1983      C2003   1.285       .  A
O1984      C2005   1.283   1_556  A
O1985     Zr1995   2.404       .  S
O1985      C2004   1.280       .  A
O1986     Zr1994   2.452   1_554  S
O1986      C2005   1.287       .  A
O1987      C2004   1.287       .  A
O1988     Zr1996   2.428       .  S
O1988      C2003   1.282       .  A
O1989     Zr1994   2.400       .  S
O1989     Zr1996   2.380       .  S
O1990     Zr1995   2.386       .  S
O1990     Zr1996   2.372       .  S
O1990      H2025   0.966       .  S
O1991     Zr1994   2.410       .  S
O1991     Zr2011   2.375       .  S
O1991      H2028   0.964       .  S
O1992     Zr1995   2.382       .  S
O1992     Zr2011   2.389       .  S
Zr1993     O2018   2.445   1_565  S
Zr1993     O2012   2.464   1_565  S
Zr1993     O2020   2.466       .  S
Zr1993     O2008   2.427   1_565  S
Zr1993     O1999   2.406       .  S
Zr1993     O2000   2.422       .  S
Zr1993     O2001   2.382       .  S
Zr1993     O2002   2.382       .  S
Zr1994     O2013   2.436   1_556  S
Zr1994     O2006   2.434   1_556  S
Zr1994     O2007   2.461   1_565  S
Zr1994     O2000   2.403       .  S
Zr1994     O2001   2.389       .  S
Zr1995     O1997   2.435       .  S
Zr1995     O2019   2.435       .  S
Zr1995     O2021   2.399       .  S
Zr1995     O1999   2.381       .  S
Zr1995     O2002   2.390       .  S
Zr1996     O2022   2.436       .  S
Zr1996     O2023   2.436       .  S
Zr1996     O1998   2.436       .  S
Zr1996     O1999   2.400       .  S
Zr1996     O2000   2.397       .  S
O1997      H2034   0.990       .  S
O1998      H2029   0.990       .  S
O1998      H2043   0.990       .  S
O2000      H2026   0.966       .  S
O2001     Zr2011   2.375       .  S
O2002     Zr2011   2.373       .  S
O2002      H2027   0.965       .  S
C2003      C3408   1.479       .  S
C2004      C3667   1.472       .  S
C2005      C2512   1.472       .  S
O2006      H2042   0.990       .  S
O2007      C2009   1.290       .  A
O2008      C2009   1.284       .  A
C2009      C2800   1.477       .  S
O2010     Zr2011   2.439       .  S
O2010      H2039   0.990       .  S
Zr2011     O2014   2.440       .  S
Zr2011     O2015   2.440       .  S
Zr2011     O2016   2.409       .  S
O2012      C2017   1.289       .  A
O2013      H2030   0.990       .  S
O2013      H2045   0.990       .  S
O2014      H2031   0.990       .  S
O2015      H2035   0.990       .  S
O2015      H2044   0.990       .  S
O2016      C2017   1.281   1_565  A
C2017      C2496   1.477       .  S
O2018      H2037   0.991       .  S
O2018      H2041   0.990       .  S
O2019      H2033   0.990       .  S
O2019      H2040   0.990       .  S
O2020      C2024   1.290       .  A
O2021      C2024   1.279       .  A
O2022      H2032   0.990       .  S
O2023      H2036   0.990       .  S
C2024      C2483   1.478       .  S
Zr2047     O2048   2.441       .  S
Zr2047     O2049   2.455       .  S
Zr2047     O2050   2.436       .  S
Zr2047     O2053   2.454       .  S
Zr2047     O2055   2.390       .  S
Zr2047     O2056   2.379       .  S
Zr2047     O2057   2.415       .  S
Zr2047     O2058   2.401       .  S
O2048      H2104   0.990       .  S
O2048      H2112   0.991       .  S
O2049      C2069   1.287       .  A
O2050      C2071   1.284       .  A
O2051     Zr2061   2.382       .  S
O2051      C2070   1.275       .  A
O2052     Zr2060   2.452       .  S
O2052      C2071   1.287       .  A
O2053      C2070   1.288       .  A
O2054     Zr2062   2.443       .  S
O2054      C2069   1.285       .  A
O2055     Zr2060   2.402       .  S
O2055     Zr2062   2.379       .  S
O2056     Zr2061   2.383       .  S
O2056     Zr2062   2.372       .  S
O2056      H2091   0.966       .  S
O2057     Zr2060   2.407       .  S
O2057     Zr2077   2.383       .  S
O2057      H2094   0.965       .  S
O2058     Zr2061   2.380       .  S
O2058     Zr2077   2.391       .  S
Zr2059     O2084   2.438       .  S
Zr2059     O2078   2.474       .  S
Zr2059     O2086   2.465       .  S
Zr2059     O2074   2.435       .  S
Zr2059     O2065   2.415       .  S
Zr2059     O2066   2.426       .  S
Zr2059     O2067   2.382       .  S
Zr2059     O2068   2.380       .  S
Zr2060     O2079   2.433       .  S
Zr2060     O2072   2.434       .  S
Zr2060     O2073   2.459       .  S
Zr2060     O2066   2.403       .  S
Zr2060     O2067   2.389       .  S
Zr2061     O2063   2.436       .  S
Zr2061     O2085   2.438       .  S
Zr2061     O2087   2.384       .  S
Zr2061     O2065   2.379       .  S
Zr2061     O2068   2.385       .  S
Zr2062     O2088   2.437       .  S
Zr2062     O2089   2.436       .  S
Zr2062     O2064   2.438       .  S
Zr2062     O2065   2.407       .  S
Zr2062     O2066   2.400       .  S
O2063      H2100   0.990       .  S
O2064      H2095   0.990       .  S
O2064      H2109   0.990       .  S
O2066      H2092   0.965       .  S
O2067     Zr2077   2.375       .  S
O2068     Zr2077   2.374       .  S
O2068      H2093   0.964       .  S
C2069      C3360   1.488       .  S
C2070      C3571   1.465       .  S
C2071      C2515   1.470       .  S
O2072      H2108   0.990       .  S
O2073      C2075   1.289       .  A
O2074      C2075   1.285       .  A
C2075      C2704   1.477       .  S
O2076     Zr2077   2.439       .  S
O2076      H2105   0.990       .  S
Zr2077     O2080   2.437       .  S
Zr2077     O2081   2.443       .  S
Zr2077     O2082   2.413       .  S
O2078      C2083   1.290       .  A
O2079      H2096   0.990       .  S
O2079      H2111   0.990       .  S
O2080      H2097   0.990       .  S
O2081      H2101   0.990       .  S
O2081      H2110   0.990       .  S
O2082      C2083   1.281       .  A
C2083      C2464   1.480       .  S
O2084      H2103   0.990       .  S
O2084      H2107   0.990       .  S
O2085      H2099   0.990       .  S
O2085      H2106   0.990       .  S
O2086      C2090   1.290       .  A
O2087      C2090   1.276       .  A
O2088      H2098   0.990       .  S
O2089      H2102   0.990       .  S
C2090      C2448   1.475       .  S
Zr2113     O2114   2.443       .  S
Zr2113     O2115   2.451       .  S
Zr2113     O2116   2.462       .  S
Zr2113     O2119   2.474       .  S
Zr2113     O2121   2.391       .  S
Zr2113     O2122   2.392       .  S
Zr2113     O2123   2.417       .  S
Zr2113     O2124   2.408       .  S
O2114      H2170   0.990       .  S
O2114      H2178   0.991       .  S
O2115      C2135   1.286       .  A
O2116      C2137   1.288       .  A
O2117     Zr2127   2.390       .  S
O2117      C2136   1.276       .  A
O2118     Zr2126   2.431       .  S
O2118      C2137   1.284       .  A
O2119      C2136   1.291       .  A
O2120     Zr2128   2.420       .  S
O2120      C2135   1.281       .  A
O2121     Zr2126   2.397       .  S
O2121     Zr2128   2.385       .  S
O2122     Zr2127   2.381       .  S
O2122     Zr2128   2.382       .  S
O2122      H2157   0.967       .  S
O2123     Zr2126   2.409       .  S
O2123     Zr2143   2.384       .  S
O2123      H2160   0.964       .  S
O2124     Zr2127   2.395       .  S
O2124     Zr2143   2.395       .  S
Zr2125     O2150   2.441       .  S
Zr2125     O2144   2.440       .  S
Zr2125     O2152   2.456       .  S
Zr2125     O2140   2.422       .  S
Zr2125     O2131   2.406       .  S
Zr2125     O2132   2.412       .  S
Zr2125     O2133   2.383       .  S
Zr2125     O2134   2.381       .  S
Zr2126     O2145   2.436       .  S
Zr2126     O2138   2.438       .  S
Zr2126     O2139   2.445       .  S
Zr2126     O2132   2.399       .  S
Zr2126     O2133   2.390       .  S
Zr2127     O2129   2.438       .  S
Zr2127     O2151   2.434       .  S
Zr2127     O2153   2.400       .  S
Zr2127     O2131   2.376       .  S
Zr2127     O2134   2.393       .  S
Zr2128     O2154   2.437       .  S
Zr2128     O2155   2.436       .  S
Zr2128     O2130   2.437       .  S
Zr2128     O2131   2.402       .  S
Zr2128     O2132   2.387       .  S
O2129      H2166   0.991       .  S
O2130      H2161   0.990       .  S
O2130      H2175   0.990       .  S
O2132      H2158   0.965       .  S
O2133     Zr2143   2.372       .  S
O2134     Zr2143   2.365       .  S
O2134      H2159   0.965       .  S
C2135      C2531   1.471       .  S
C2136      C2659   1.476       .  S
C2137      C2432   1.476       .  S
O2138      H2174   0.990       .  S
O2139      C2141   1.287       .  A
O2140      C2141   1.283       .  A
C2141      C3619   1.466       .  S
O2142     Zr2143   2.434       .  S
O2142      H2171   0.990       .  S
Zr2143     O2146   2.437       .  S
Zr2143     O2147   2.437       .  S
Zr2143     O2148   2.429       .  S
O2144      C2149   1.284       .  A
O2145      H2162   0.990       .  S
O2145      H2177   0.990       .  S
O2146      H2163   0.990       .  S
O2147      H2167   0.990       .  S
O2147      H2176   0.990       .  S
O2148      C2149   1.283       .  A
C2149      C2416   1.471       .  S
O2150      H2169   0.990       .  S
O2150      H2173   0.990       .  S
O2151      H2165   0.990       .  S
O2151      H2172   0.990       .  S
O2152      C2156   1.288       .  A
O2153      C2156   1.278       .  A
O2154      H2164   0.990       .  S
O2155      H2168   0.990       .  S
C2156      C2451   1.473       .  S
Zr2179     O2180   2.442       .  S
Zr2179     O2181   2.439       .  S
Zr2179     O2182   2.449       .  S
Zr2179     O2185   2.459       .  S
Zr2179     O2187   2.388       .  S
Zr2179     O2188   2.382       .  S
Zr2179     O2189   2.415       .  S
Zr2179     O2190   2.403       .  S
O2180      H2236   0.991       .  S
O2180      H2244   0.990       .  S
O2181      C2201   1.283       .  A
O2182      C2203   1.285       .  A
O2183     Zr2193   2.382       .  S
O2183      C2202   1.275       .  A
O2184     Zr2192   2.436       .  S
O2184      C2203   1.285       .  A
O2185      C2202   1.288       .  A
O2186     Zr2194   2.434       .  S
O2186      C2201   1.282       .  A
O2187     Zr2192   2.401       .  S
O2187     Zr2194   2.388       .  S
O2188     Zr2193   2.379       .  S
O2188     Zr2194   2.370       .  S
O2188      H2223   0.966       .  S
O2189     Zr2192   2.406       .  S
O2189     Zr2209   2.388       .  S
O2189      H2226   0.965       .  S
O2190     Zr2193   2.390       .  S
O2190     Zr2209   2.393       .  S
Zr2191     O2216   2.441       .  S
Zr2191     O2210   2.446       .  S
Zr2191     O2218   2.471       .  S
Zr2191     O2206   2.430       .  S
Zr2191     O2197   2.410       .  S
Zr2191     O2198   2.414       .  S
Zr2191     O2199   2.386       .  S
Zr2191     O2200   2.376       .  S
Zr2192     O2211   2.437       .  S
Zr2192     O2204   2.433       .  S
Zr2192     O2205   2.443       .  S
Zr2192     O2198   2.398       .  S
Zr2192     O2199   2.387       .  S
Zr2193     O2195   2.436       .  S
Zr2193     O2217   2.435       .  S
Zr2193     O2219   2.393       .  S
Zr2193     O2197   2.381       .  S
Zr2193     O2200   2.383       .  S
Zr2194     O2220   2.437       .  S
Zr2194     O2221   2.436       .  S
Zr2194     O2196   2.437       .  S
Zr2194     O2197   2.406       .  S
Zr2194     O2198   2.396       .  S
O2195      H2232   0.990   1_556  S
O2196      H2227   0.991       .  S
O2196      H2241   0.990       .  S
O2198      H2224   0.965       .  S
O2199     Zr2209   2.376       .  S
O2200     Zr2209   2.361       .  S
O2200      H2225   0.965       .  S
C2201      C2560   1.473       .  S
C2202      C2752   1.466       .  S
C2203      C2435   1.470       .  S
O2204      H2240   0.990       .  S
O2205      C2207   1.287       .  A
O2206      C2207   1.284       .  A
C2207      C2771   1.468       .  S
O2208     Zr2209   2.438       .  S
O2208      H2237   0.990       .  S
Zr2209     O2212   2.439       .  S
Zr2209     O2213   2.438       .  S
Zr2209     O2214   2.424       .  S
O2210      C2215   1.285       .  A
O2211      H2228   0.990       .  S
O2211      H2243   0.990       .  S
O2212      H2229   0.990       .  S
O2213      H2233   0.990       .  S
O2213      H2242   0.990       .  S
O2214      C2215   1.282       .  A
C2215      C2499   1.469       .  S
O2216      H2235   0.990       .  S
O2216      H2239   0.990       .  S
O2217      H2231   0.990       .  S
O2217      H2238   0.990       .  S
O2218      C2222   1.291       .  A
O2219      C2222   1.277       .  A
O2220      H2230   0.990       .  S
O2221      H2234   0.990       .  S
C2222      C2403   1.470   1_556  S
Zr2245     O2246   2.443       .  S
Zr2245     O2247   2.433       .  S
Zr2245     O2248   2.446       .  S
Zr2245     O2251   2.456       .  S
Zr2245     O2253   2.391       .  S
Zr2245     O2254   2.382       .  S
Zr2245     O2255   2.414       .  S
Zr2245     O2256   2.405       .  S
O2246      H2302   0.991       .  S
O2246      H2310   0.990       .  S
O2247      C2267   1.283       .  A
O2248      C2269   1.286       .  A
O2249     Zr2259   2.399       .  S
O2249      C2268   1.279       .  A
O2250     Zr2258   2.436       .  S
O2250      C2269   1.285       .  A
O2251      C2268   1.288       .  A
O2252     Zr2260   2.443       .  S
O2252      C2267   1.284       .  A
O2253     Zr2258   2.397       .  S
O2253     Zr2260   2.383       .  S
O2254     Zr2259   2.385       .  S
O2254     Zr2260   2.368       .  S
O2254      H2289   0.965       .  S
O2255     Zr2258   2.414       .  S
O2255     Zr2275   2.377       .  S
O2255      H2292   0.963       .  S
O2256     Zr2259   2.383       .  S
O2256     Zr2275   2.395       .  S
Zr2257     O2282   2.444   1_545  S
Zr2257     O2276   2.478   1_545  S
Zr2257     O2284   2.457       .  S
Zr2257     O2272   2.428   1_545  S
Zr2257     O2263   2.414       .  S
Zr2257     O2264   2.425       .  S
Zr2257     O2265   2.375       .  S
Zr2257     O2266   2.382       .  S
Zr2258     O2277   2.435       .  S
Zr2258     O2270   2.435       .  S
Zr2258     O2271   2.454       .  S
Zr2258     O2264   2.400       .  S
Zr2258     O2265   2.387       .  S
Zr2259     O2261   2.435       .  S
Zr2259     O2283   2.438       .  S
Zr2259     O2285   2.392       .  S
Zr2259     O2263   2.383       .  S
Zr2259     O2266   2.389       .  S
Zr2260     O2286   2.438       .  S
Zr2260     O2287   2.435       .  S
Zr2260     O2262   2.435       .  S
Zr2260     O2263   2.403       .  S
Zr2260     O2264   2.407       .  S
O2261      H2298   0.990       .  S
O2262      H2293   0.991       .  S
O2262      H2307   0.990       .  S
O2264      H2290   0.966       .  S
O2265     Zr2275   2.371       .  S
O2266     Zr2275   2.366       .  S
O2266      H2291   0.965       .  S
C2267      C2883   1.478       .  S
C2268      C2787   1.474       .  S
C2269      C2384   1.473       .  S
O2270      H2306   0.990       .  S
O2271      C2273   1.288   1_545  A
O2272      C2273   1.284       .  A
C2273      C3539   1.477       .  S
O2274     Zr2275   2.435       .  S
O2274      H2303   0.990       .  S
Zr2275     O2278   2.435       .  S
Zr2275     O2279   2.440       .  S
Zr2275     O2280   2.410       .  S
O2276      C2281   1.291       .  A
O2277      H2294   0.990       .  S
O2277      H2309   0.990       .  S
O2278      H2295   0.990       .  S
O2279      H2299   0.990       .  S
O2279      H2308   0.990       .  S
O2280      C2281   1.280   1_545  A
C2281      C2419   1.483       .  S
O2282      H2301   0.990   1_565  S
O2282      H2305   0.990       .  S
O2283      H2297   0.990       .  S
O2283      H2304   0.990       .  S
O2284      C2288   1.289       .  A
O2285      C2288   1.278       .  A
O2286      H2296   0.990       .  S
O2287      H2300   0.990       .  S
C2288      C2480   1.472       .  S
Zr2311     O2312   2.443       .  S
Zr2311     O2313   2.444       .  S
Zr2311     O2314   2.441       .  S
Zr2311     O2317   2.451       .  S
Zr2311     O2319   2.389       .  S
Zr2311     O2320   2.387       .  S
Zr2311     O2321   2.417       .  S
Zr2311     O2322   2.396       .  S
O2312      H2368   0.990       .  S
O2312      H2376   0.990       .  S
O2313      C2333   1.284       .  A
O2314      C2335   1.283       .  A
O2315     Zr2325   2.397       .  S
O2315      C2334   1.277       .  A
O2316     Zr2324   2.434       .  S
O2316      C2335   1.284       .  A
O2317      C2334   1.287       .  A
O2318     Zr2326   2.441       .  S
O2318      C2333   1.284       .  A
O2319     Zr2324   2.397       .  S
O2319     Zr2326   2.380       .  S
O2320     Zr2325   2.382       .  S
O2320     Zr2326   2.376       .  S
O2320      H2355   0.967       .  S
O2321     Zr2324   2.411       .  S
O2321     Zr2341   2.388       .  S
O2321      H2358   0.965       .  S
O2322     Zr2325   2.387       .  S
O2322     Zr2341   2.387       .  S
Zr2323     O2348   2.443       .  S
Zr2323     O2342   2.460       .  S
Zr2323     O2350   2.464       .  S
Zr2323     O2338   2.428       .  S
Zr2323     O2329   2.415       .  S
Zr2323     O2330   2.420       .  S
Zr2323     O2331   2.377       .  S
Zr2323     O2332   2.377       .  S
Zr2324     O2343   2.438       .  S
Zr2324     O2336   2.434       .  S
Zr2324     O2337   2.447       .  S
Zr2324     O2330   2.394       .  S
Zr2324     O2331   2.389       .  S
Zr2325     O2327   2.437       .  S
Zr2325     O2349   2.436       .  S
Zr2325     O2351   2.398       .  S
Zr2325     O2329   2.377       .  S
Zr2325     O2332   2.396       .  S
Zr2326     O2352   2.437       .  S
Zr2326     O2353   2.436       .  S
Zr2326     O2328   2.436       .  S
Zr2326     O2329   2.407       .  S
Zr2326     O2330   2.399       .  S
O2327      H2364   0.990       .  S
O2328      H2359   0.990       .  S
O2328      H2373   0.990       .  S
O2330      H2356   0.966       .  S
O2331     Zr2341   2.372       .  S
O2332     Zr2341   2.369       .  S
O2332      H2357   0.966       .  S
C2333      C2963   1.480       .  S
C2334      C2832   1.466       .  S
C2335      C2387   1.462       .  S
O2336      H2372   0.990       .  S
O2337      C2339   1.287       .  A
O2338      C2339   1.284       .  A
C2339      C2640   1.469       .  S
O2340     Zr2341   2.437       .  S
O2340      H2369   0.990       .  S
Zr2341     O2344   2.436       .  S
Zr2341     O2345   2.439       .  S
Zr2341     O2346   2.422       .  S
O2342      C2347   1.288       .  A
O2343      H2360   0.990       .  S
O2343      H2375   0.990       .  S
O2344      H2361   0.990       .  S
O2345      H2365   0.990       .  S
O2345      H2374   0.990       .  S
O2346      C2347   1.281       .  A
C2347      C2467   1.476       .  S
O2348      H2367   0.989       .  S
O2348      H2371   0.990       .  S
O2349      H2363   0.990       .  S
O2349      H2370   0.990       .  S
O2350      C2354   1.290       .  A
O2351      C2354   1.277       .  A
O2352      H2362   0.990       .  S
O2353      H2366   0.990       .  S
C2354      C2400   1.472       .  S
C2377      S2383   1.704       .  A
C2377      C2382   1.387       .  A
C2377      C2378   1.401       .  A
C2378      C2379   1.401       .  A
C2378      H2389   1.083       .  S
C2379      C2388   1.369       .  A
C2379      C2380   1.387       .  A
C2380      S2386   1.710       .  A
C2380      C2381   1.403       .  A
C2381      C2382   1.404       .  A
C2381      H2390   1.083       .  S
C2382      C2385   1.373       .  A
S2383      C2384   1.724       .  A
C2384      C2385   1.388       .  A
C2385      H2391   1.083       .  S
S2386      C2387   1.720       .  A
C2387      C2388   1.384       .  A
C2388      H2392   1.083       .  S
C2393      S2399   1.701       .  A
C2393      C2398   1.387       .  A
C2393      C2394   1.405       .  A
C2394      C2395   1.402       .  A
C2394      H2405   1.083       .  S
C2395      C2404   1.378       .  A
C2395      C2396   1.388       .  A
C2396      S2402   1.695       .  A
C2396      C2397   1.400       .  A
C2397      C2398   1.398       .  A
C2397      H2406   1.083       .  S
C2398      C2401   1.373       .  A
S2399      C2400   1.729       .  A
C2400      C2401   1.384       .  A
C2401      H2407   1.083       .  S
S2402      C2403   1.725       .  A
C2403      C2404   1.386       .  A
C2404      H2408   1.083       .  S
C2409      S2415   1.714       .  A
C2409      C2414   1.387       .  A
C2409      C2410   1.411       .  A
C2410      C2411   1.411       .  A
C2410      H2421   1.083       .  S
C2411      C2420   1.387       .  A
C2411      C2412   1.387       .  A
C2412      S2418   1.697       .  A
C2412      C2413   1.399       .  A
C2413      C2414   1.398       .  A
C2413      H2422   1.083       .  S
C2414      C2417   1.371       .  A
S2415      C2416   1.726       .  A
C2416      C2417   1.383       .  A
C2417      H2423   1.083       .  S
S2418      C2419   1.724       .  A
C2419      C2420   1.393       .  A
C2420      H2424   1.082       .  S
C2425      S2431   1.705       .  A
C2425      C2430   1.387       .  A
C2425      C2426   1.401   1_565  A
C2426      C2427   1.402       .  A
C2426      H2437   1.083       .  S
C2427      C2436   1.370       .  A
C2427      C2428   1.387       .  A
C2428      S2434   1.712       .  A
C2428      C2429   1.405       .  A
C2429      C2430   1.406   1_545  A
C2429      H2438   1.083       .  S
C2430      C2433   1.376       .  A
S2431      C2432   1.724       .  A
C2432      C2433   1.389       .  A
C2433      H2439   1.083       .  S
S2434      C2435   1.723       .  A
C2435      C2436   1.385       .  A
C2436      H2440   1.083       .  S
C2441      S2447   1.718       .  A
C2441      C2446   1.385       .  A
C2441      C2442   1.401       .  A
C2442      C2443   1.406       .  A
C2442      H2453   1.083       .  S
C2443      C2452   1.363       .  A
C2443      C2444   1.386       .  A
C2444      S2450   1.712       .  A
C2444      C2445   1.397       .  A
C2445      C2446   1.402       .  A
C2445      H2454   1.083       .  S
C2446      C2449   1.358       .  A
S2447      C2448   1.723       .  A
C2448      C2449   1.390       .  A
C2449      H2455   1.084       .  S
S2450      C2451   1.721       .  A
C2451      C2452   1.391       .  A
C2452      H2456   1.083       .  S
C2457      S2463   1.723       .  A
C2457      C2462   1.385       .  A
C2457      C2458   1.410   1_565  A
C2458      C2459   1.412       .  A
C2458      H2469   1.083       .  S
C2459      C2468   1.380       .  A
C2459      C2460   1.386       .  A
C2460      S2466   1.709       .  A
C2460      C2461   1.401       .  A
C2461      C2462   1.403   1_545  A
C2461      H2470   1.083       .  S
C2462      C2465   1.369       .  A
S2463      C2464   1.726       .  A
C2464      C2465   1.388       .  A
C2465      H2471   1.084       .  S
S2466      C2467   1.722       .  A
C2467      C2468   1.392       .  A
C2468      H2472   1.083       .  S
C2473      S2479   1.714       .  A
C2473      C2478   1.386   1_565  A
C2473      C2474   1.398       .  A
C2474      C2475   1.404       .  A
C2474      H2485   1.083       .  S
C2475      C2484   1.363       .  A
C2475      C2476   1.386   1_565  A
C2476      S2482   1.716       .  A
C2476      C2477   1.400       .  A
C2477      C2478   1.404       .  A
C2477      H2486   1.083       .  S
C2478      C2481   1.361       .  A
S2479      C2480   1.720   1_565  A
C2480      C2481   1.390       .  A
C2481      H2487   1.084       .  S
S2482      C2483   1.723   1_545  A
C2483      C2484   1.390       .  A
C2484      H2488   1.083       .  S
C2489      S2495   1.720       .  A
C2489      C2494   1.386       .  A
C2489      C2490   1.408       .  A
C2490      C2491   1.410       .  A
C2490      H2501   1.083       .  S
C2491      C2500   1.377       .  A
C2491      C2492   1.388       .  A
C2492      S2498   1.704       .  A
C2492      C2493   1.397       .  A
C2493      C2494   1.400       .  A
C2493      H2502   1.083       .  S
C2494      C2497   1.364       .  A
S2495      C2496   1.724       .  A
C2496      C2497   1.387       .  A
C2497      H2503   1.084       .  S
S2498      C2499   1.719       .  A
C2499      C2500   1.390       .  A
C2500      H2504   1.083       .  S
C2505      S2511   1.713       .  A
C2505      C2510   1.386       .  A
C2505      C2506   1.402       .  A
C2506      C2507   1.405       .  A
C2506      H2517   1.083       .  S
C2507      C2516   1.370       .  A
C2507      C2508   1.387       .  A
C2508      S2514   1.713       .  A
C2508      C2509   1.402       .  A
C2509      C2510   1.404       .  A
C2509      H2518   1.083       .  S
C2510      C2513   1.367       .  A
S2511      C2512   1.722       .  A
C2512      C2513   1.388       .  A
C2513      H2519   1.083       .  S
S2514      C2515   1.720       .  A
C2515      C2516   1.387       .  A
C2516      H2520   1.083       .  S
C2521      S2527   1.710       .  A
C2521      C2526   1.386       .  A
C2521      C2522   1.402       .  A
C2522      C2523   1.403       .  A
C2522      H2533   1.083       .  S
C2523      C2532   1.371       .  A
C2523      C2524   1.387       .  A
C2524      S2530   1.712       .  A
C2524      C2525   1.404       .  A
C2525      C2526   1.405       .  A
C2525      H2534   1.083       .  S
C2526      C2529   1.372       .  A
S2527      C2528   1.722       .  A
C2528      C2529   1.390       .  A
C2529      H2535   1.083       .  S
S2530      C2531   1.723       .  A
C2531      C2532   1.386       .  A
C2532      H2536   1.083       .  S
C2537      S2543   1.706       .  A
C2537      C2542   1.387       .  A
C2537      C2538   1.401       .  A
C2538      C2539   1.402       .  A
C2538      H2549   1.083       .  S
C2539      C2548   1.370       .  A
C2539      C2540   1.387       .  A
C2540      S2546   1.708       .  A
C2540      C2541   1.402       .  A
C2541      C2542   1.403       .  A
C2541      H2550   1.083       .  S
C2542      C2545   1.370       .  A
S2543      C2544   1.723       .  A
C2544      C2545   1.385       .  A
C2545      H2551   1.083       .  S
S2546      C2547   1.723       .  A
C2547      C2548   1.387       .  A
C2548      H2552   1.083       .  S
C2553      S2559   1.707       .  A
C2553      C2558   1.387       .  A
C2553      C2554   1.400       .  A
C2554      C2555   1.401       .  A
C2554      H2565   1.083       .  S
C2555      C2564   1.369       .  A
C2555      C2556   1.386       .  A
C2556      S2562   1.714       .  A
C2556      C2557   1.406       .  A
C2557      C2558   1.407       .  A
C2557      H2566   1.083       .  S
C2558      C2561   1.375       .  A
S2559      C2560   1.721       .  A
C2560      C2561   1.389       .  A
C2561      H2567   1.083       .  S
S2562      C2563   1.725       .  A
C2563      C2564   1.387       .  A
C2564      H2568   1.083       .  S
C2569      S2575   1.705       .  A
C2569      C2574   1.387       .  A
C2569      C2570   1.404       .  A
C2570      C2571   1.403   1_545  A
C2570      H2581   1.083   1_545  S
C2571      C2580   1.376       .  A
C2571      C2572   1.387       .  A
C2572      S2578   1.709       .  A
C2572      C2573   1.406   1_565  A
C2573      C2574   1.405       .  A
C2573      H2582   1.083       .  S
C2574      C2577   1.379       .  A
S2575      C2576   1.724       .  A
C2576      C2577   1.387       .  A
C2577      H2583   1.083       .  S
S2578      C2579   1.724       .  A
C2579      C2580   1.386       .  A
C2580      H2584   1.083       .  S
C2585      S2591   1.697       .  A
C2585      C2590   1.387       .  A
C2585      C2586   1.401       .  A
C2586      C2587   1.399       .  A
C2586      H2597   1.083       .  S
C2587      C2596   1.373       .  A
C2587      C2588   1.388   1_545  A
C2588      S2594   1.698       .  A
C2588      C2589   1.402       .  A
C2589      C2590   1.400   1_565  A
C2589      H2598   1.083       .  S
C2590      C2593   1.376       .  A
S2591      C2592   1.727       .  A
C2592      C2593   1.386       .  A
C2593      H2599   1.083   1_545  S
S2594      C2595   1.727       .  A
C2595      C2596   1.384   1_565  A
C2596      H2600   1.083       .  S
C2601      S2607   1.708       .  A
C2601      C2606   1.387       .  A
C2601      C2602   1.402       .  A
C2602      C2603   1.403       .  A
C2602      H2613   1.083       .  S
C2603      C2612   1.371       .  A
C2603      C2604   1.387       .  A
C2604      S2610   1.706       .  A
C2604      C2605   1.400       .  A
C2605      C2606   1.401       .  A
C2605      H2614   1.083       .  S
C2606      C2609   1.369       .  A
S2607      C2608   1.724       .  A
C2608      C2609   1.385       .  A
C2609      H2615   1.083       .  S
S2610      C2611   1.722       .  A
C2611      C2612   1.387       .  A
C2612      H2616   1.083       .  S
C2617      S2623   1.711       .  A
C2617      C2622   1.386       .  A
C2617      C2618   1.398       .  A
C2618      C2619   1.402       .  A
C2618      H2629   1.083       .  S
C2619      C2628   1.362       .  A
C2619      C2620   1.386       .  A
C2620      S2626   1.714       .  A
C2620      C2621   1.401       .  A
C2621      C2622   1.405       .  A
C2621      H2630   1.083       .  S
C2622      C2625   1.365       .  A
S2623      C2624   1.721       .  A
C2624      C2625   1.391       .  A
C2625      H2631   1.083       .  S
S2626      C2627   1.723       .  A
C2627      C2628   1.388       .  A
C2628      H2632   1.083       .  S
C2633      S2639   1.709       .  A
C2633      C2638   1.387       .  A
C2633      C2634   1.402       .  A
C2634      C2635   1.403       .  A
C2634      H2645   1.083       .  S
C2635      C2644   1.371       .  A
C2635      C2636   1.386       .  A
C2636      S2642   1.711       .  A
C2636      C2637   1.403       .  A
C2637      C2638   1.404       .  A
C2637      H2646   1.083       .  S
C2638      C2641   1.371       .  A
S2639      C2640   1.723       .  A
C2640      C2641   1.385       .  A
C2641      H2647   1.083       .  S
S2642      C2643   1.725       .  A
C2643      C2644   1.389       .  A
C2644      H2648   1.083       .  S
C2649      S2655   1.698       .  A
C2649      C2654   1.387       .  A
C2649      C2650   1.402       .  A
C2650      C2651   1.400   1_545  A
C2650      H2661   1.083       .  S
C2651      C2660   1.376       .  A
C2651      C2652   1.387       .  A
C2652      S2658   1.698       .  A
C2652      C2653   1.402       .  A
C2653      C2654   1.400   1_565  A
C2653      H2662   1.083       .  S
C2654      C2657   1.374       .  A
S2655      C2656   1.727       .  A
C2656      C2657   1.385       .  A
C2657      H2663   1.083       .  S
S2658      C2659   1.729       .  A
C2659      C2660   1.386       .  A
C2660      H2664   1.083       .  S
C2665      S2671   1.706       .  A
C2665      C2670   1.387       .  A
C2665      C2666   1.398       .  A
C2666      C2667   1.401       .  A
C2666      H2677   1.083       .  S
C2667      C2676   1.364       .  A
C2667      C2668   1.386       .  A
C2668      S2674   1.719       .  A
C2668      C2669   1.406       .  A
C2669      C2670   1.408       .  A
C2669      H2678   1.083       .  S
C2670      C2673   1.374       .  A
S2671      C2672   1.719       .  A
C2672      C2673   1.388       .  A
C2673      H2679   1.083       .  S
S2674      C2675   1.722       .  A
C2675      C2676   1.386       .  A
C2676      H2680   1.084       .  S
C2681      S2687   1.718       .  A
C2681      C2686   1.385       .  A
C2681      C2682   1.404       .  A
C2682      C2683   1.408       .  A
C2682      H2693   1.083       .  S
C2683      C2692   1.369       .  A
C2683      C2684   1.386       .  A
C2684      S2690   1.713       .  A
C2684      C2685   1.399       .  A
C2685      C2686   1.403       .  A
C2685      H2694   1.083       .  S
C2686      C2689   1.365       .  A
S2687      C2688   1.726       .  A
C2688      C2689   1.390       .  A
C2689      H2695   1.083       .  S
S2690      C2691   1.722       .  A
C2691      C2692   1.393       .  A
C2692      H2696   1.083       .  S
C2697      S2703   1.707       .  A
C2697      C2702   1.387       .  A
C2697      C2698   1.401       .  A
C2698      C2699   1.402       .  A
C2698      H2709   1.083       .  S
C2699      C2708   1.371       .  A
C2699      C2700   1.386       .  A
C2700      S2706   1.719       .  A
C2700      C2701   1.410       .  A
C2701      C2702   1.411       .  A
C2701      H2710   1.083       .  S
C2702      C2705   1.380       .  A
S2703      C2704   1.722       .  A
C2704      C2705   1.391       .  A
C2705      H2711   1.083       .  S
S2706      C2707   1.730       .  A
C2707      C2708   1.388       .  A
C2708      H2712   1.083       .  S
C2713      S2719   1.713       .  A
C2713      C2718   1.387       .  A
C2713      C2714   1.405   1_565  A
C2714      C2715   1.406       .  A
C2714      H2725   1.083       .  S
C2715      C2724   1.376       .  A
C2715      C2716   1.387       .  A
C2716      S2722   1.707       .  A
C2716      C2717   1.402       .  A
C2717      C2718   1.403   1_545  A
C2717      H2726   1.083       .  S
C2718      C2721   1.371       .  A
S2719      C2720   1.722       .  A
C2720      C2721   1.386       .  A
C2721      H2727   1.083       .  S
S2722      C2723   1.724       .  A
C2723      C2724   1.390       .  A
C2724      H2728   1.083       .  S
C2729      S2735   1.703       .  A
C2729      C2734   1.387       .  A
C2729      C2730   1.397       .  A
C2730      C2731   1.399       .  A
C2730      H2741   1.083       .  S
C2731      C2740   1.364       .  A
C2731      C2732   1.385       .  A
C2732      S2738   1.723       .  A
C2732      C2733   1.410       .  A
C2733      C2734   1.412       .  A
C2733      H2742   1.083       .  S
C2734      C2737   1.381       .  A
S2735      C2736   1.719       .  A
C2736      C2737   1.392       .  A
C2737      H2743   1.083       .  S
S2738      C2739   1.727       .  A
C2739      C2740   1.386       .  A
C2740      H2744   1.084       .  S
C2745      S2751   1.693       .  A
C2745      C2750   1.388       .  A
C2745      C2746   1.398   1_556  A
C2746      C2747   1.396   1_545  A
C2746      H2757   1.083       .  S
C2747      C2756   1.368       .  A
C2747      C2748   1.388   1_554  A
C2748      S2754   1.700       .  A
C2748      C2749   1.401       .  A
C2749      C2750   1.400   1_565  A
C2749      H2758   1.083       .  S
C2750      C2753   1.373       .  A
S2751      C2752   1.725       .  A
C2752      C2753   1.384       .  A
C2753      H2759   1.083       .  S
S2754      C2755   1.724   1_556  A
C2755      C2756   1.382       .  A
C2756      H2760   1.083       .  S
C2761      S2767   1.707       .  A
C2761      C2766   1.387       .  A
C2761      C2762   1.402       .  A
C2762      C2763   1.402       .  A
C2762      H2773   1.083       .  S
C2763      C2772   1.371       .  A
C2763      C2764   1.387       .  A
C2764      S2770   1.708       .  A
C2764      C2765   1.403       .  A
C2765      C2766   1.404       .  A
C2765      H2774   1.083       .  S
C2766      C2769   1.374       .  A
S2767      C2768   1.724       .  A
C2768      C2769   1.389       .  A
C2769      H2775   1.083       .  S
S2770      C2771   1.722       .  A
C2771      C2772   1.385       .  A
C2772      H2776   1.083       .  S
C2777      S2783   1.712       .  A
C2777      C2782   1.386       .  A
C2777      C2778   1.400       .  A
C2778      C2779   1.404       .  A
C2778      H2789   1.083       .  S
C2779      C2788   1.365       .  A
C2779      C2780   1.386       .  A
C2780      S2786   1.713       .  A
C2780      C2781   1.400       .  A
C2781      C2782   1.404       .  A
C2781      H2790   1.083       .  S
C2782      C2785   1.366       .  A
S2783      C2784   1.723       .  A
C2784      C2785   1.389       .  A
C2785      H2791   1.083       .  S
S2786      C2787   1.722       .  A
C2787      C2788   1.389       .  A
C2788      H2792   1.083       .  S
C2793      S2799   1.706       .  A
C2793      C2798   1.387   1_556  A
C2793      C2794   1.401       .  A
C2794      C2795   1.402   1_556  A
C2794      H2805   1.083       .  S
C2795      C2804   1.371       .  A
C2795      C2796   1.386       .  A
C2796      S2802   1.714       .  A
C2796      C2797   1.407       .  A
C2797      C2798   1.408       .  A
C2797      H2806   1.083       .  S
C2798      C2801   1.378   1_554  A
S2799      C2800   1.723       .  A
C2800      C2801   1.390       .  A
C2801      H2807   1.083   1_556  S
S2802      C2803   1.727       .  A
C2803      C2804   1.388       .  A
C2804      H2808   1.083       .  S
C2809      S2815   1.711       .  A
C2809      C2814   1.387       .  A
C2809      C2810   1.400       .  A
C2810      C2811   1.403       .  A
C2810      H2821   1.083       .  S
C2811      C2820   1.366       .  A
C2811      C2812   1.387       .  A
C2812      S2818   1.712       .  A
C2812      C2813   1.401       .  A
C2813      C2814   1.403       .  A
C2813      H2822   1.083       .  S
C2814      C2817   1.366       .  A
S2815      C2816   1.720       .  A
C2816      C2817   1.386       .  A
C2817      H2823   1.083       .  S
S2818      C2819   1.722       .  A
C2819      C2820   1.386       .  A
C2820      H2824   1.083       .  S
C2825      S2831   1.696       .  A
C2825      C2830   1.388       .  A
C2825      C2826   1.399       .  A
C2826      C2827   1.397       .  A
C2826      H2837   1.083       .  S
C2827      C2836   1.370       .  A
C2827      C2828   1.388       .  A
C2828      S2834   1.696       .  A
C2828      C2829   1.400       .  A
C2829      C2830   1.398       .  A
C2829      H2838   1.083       .  S
C2830      C2833   1.371       .  A
S2831      C2832   1.724       .  A
C2832      C2833   1.384       .  A
C2833      H2839   1.083       .  S
S2834      C2835   1.725       .  A
C2835      C2836   1.383       .  A
C2836      H2840   1.083       .  S
C2841      S2847   1.715       .  A
C2841      C2846   1.387       .  A
C2841      C2842   1.405       .  A
C2842      C2843   1.407       .  A
C2842      H2853   1.083       .  S
C2843      C2852   1.373       .  A
C2843      C2844   1.386       .  A
C2844      S2850   1.711       .  A
C2844      C2845   1.402       .  A
C2845      C2846   1.404       .  A
C2845      H2854   1.083       .  S
C2846      C2849   1.371       .  A
S2847      C2848   1.723       .  A
C2848      C2849   1.386       .  A
C2849      H2855   1.083       .  S
S2850      C2851   1.721       .  A
C2851      C2852   1.389       .  A
C2852      H2856   1.083       .  S
C2857      S2863   1.699       .  A
C2857      C2862   1.387       .  A
C2857      C2858   1.405       .  A
C2858      C2859   1.402       .  A
C2858      H2869   1.083       .  S
C2859      C2868   1.380       .  A
C2859      C2860   1.387       .  A
C2860      S2866   1.700       .  A
C2860      C2861   1.405       .  A
C2861      C2862   1.402       .  A
C2861      H2870   1.083       .  S
C2862      C2865   1.379       .  A
S2863      C2864   1.730       .  A
C2864      C2865   1.386       .  A
C2865      H2871   1.083       .  S
S2866      C2867   1.730       .  A
C2867      C2868   1.387       .  A
C2868      H2872   1.083       .  S
C2873      S2879   1.714       .  A
C2873      C2878   1.386       .  A
C2873      C2874   1.407       .  A
C2874      C2875   1.407       .  A
C2874      H2885   1.083       .  S
C2875      C2884   1.377       .  A
C2875      C2876   1.387       .  A
C2876      S2882   1.707       .  A
C2876      C2877   1.402       .  A
C2877      C2878   1.402       .  A
C2877      H2886   1.083       .  S
C2878      C2881   1.372       .  A
S2879      C2880   1.727       .  A
C2880      C2881   1.388       .  A
C2881      H2887   1.083       .  S
S2882      C2883   1.724       .  A
C2883      C2884   1.390       .  A
C2884      H2888   1.083       .  S
C2889      S2895   1.713       .  A
C2889      C2894   1.386       .  A
C2889      C2890   1.406       .  A
C2890      C2891   1.407       .  A
C2890      H2901   1.083       .  S
C2891      C2900   1.374       .  A
C2891      C2892   1.387       .  A
C2892      S2898   1.707       .  A
C2892      C2893   1.400       .  A
C2893      C2894   1.401       .  A
C2893      H2902   1.083       .  S
C2894      C2897   1.370       .  A
S2895      C2896   1.727       .  A
C2896      C2897   1.385       .  A
C2897      H2903   1.083       .  S
S2898      C2899   1.720       .  A
C2899      C2900   1.390       .  A
C2900      H2904   1.083       .  S
C2905      S2911   1.717       .  A
C2905      C2910   1.385       .  A
C2905      C2906   1.405       .  A
C2906      C2907   1.407       .  A
C2906      H2917   1.083       .  S
C2907      C2916   1.370       .  A
C2907      C2908   1.386       .  A
C2908      S2914   1.710       .  A
C2908      C2909   1.399       .  A
C2909      C2910   1.402       .  A
C2909      H2918   1.083       .  S
C2910      C2913   1.366       .  A
S2911      C2912   1.726       .  A
C2912      C2913   1.389       .  A
C2913      H2919   1.083       .  S
S2914      C2915   1.721       .  A
C2915      C2916   1.392       .  A
C2916      H2920   1.083       .  S
C2921      S2927   1.720       .  A
C2921      C2926   1.386       .  A
C2921      C2922   1.408       .  A
C2922      C2923   1.410       .  A
C2922      H2933   1.083       .  S
C2923      C2932   1.376       .  A
C2923      C2924   1.388       .  A
C2924      S2930   1.701       .  A
C2924      C2925   1.394       .  A
C2925      C2926   1.396       .  A
C2925      H2934   1.083       .  S
C2926      C2929   1.360       .  A
S2927      C2928   1.724       .  A
C2928      C2929   1.383       .  A
C2929      H2935   1.084       .  S
S2930      C2931   1.716       .  A
C2931      C2932   1.390       .  A
C2932      H2936   1.083       .  S
C2937      S2943   1.707       .  A
C2937      C2942   1.387       .  A
C2937      C2938   1.406       .  A
C2938      C2939   1.405       .  A
C2938      H2949   1.083       .  S
C2939      C2948   1.379       .  A
C2939      C2940   1.387       .  A
C2940      S2946   1.699       .  A
C2940      C2941   1.400       .  A
C2941      C2942   1.399       .  A
C2941      H2950   1.083       .  S
C2942      C2945   1.372       .  A
S2943      C2944   1.727       .  A
C2944      C2945   1.384       .  A
C2945      H2951   1.083       .  S
S2946      C2947   1.724       .  A
C2947      C2948   1.388       .  A
C2948      H2952   1.083       .  S
C2953      S2959   1.716       .  A
C2953      C2958   1.386       .  A
C2953      C2954   1.408       .  A
C2954      C2955   1.409       .  A
C2954      H2965   1.083       .  S
C2955      C2964   1.379       .  A
C2955      C2956   1.387       .  A
C2956      S2962   1.707       .  A
C2956      C2957   1.401       .  A
C2957      C2958   1.402       .  A
C2957      H2966   1.083       .  S
C2958      C2961   1.371       .  A
S2959      C2960   1.724       .  A
C2960      C2961   1.387       .  A
C2961      H2967   1.083       .  S
S2962      C2963   1.722       .  A
C2963      C2964   1.392       .  A
C2964      H2968   1.083       .  S
C2969      S2975   1.704       .  A
C2969      C2974   1.387       .  A
C2969      C2970   1.400       .  A
C2970      C2971   1.401       .  A
C2970      H2981   1.083       .  S
C2971      C2980   1.371       .  A
C2971      C2972   1.387       .  A
C2972      S2978   1.710       .  A
C2972      C2973   1.405       .  A
C2973      C2974   1.406       .  A
C2973      H2982   1.083       .  S
C2974      C2977   1.376       .  A
S2975      C2976   1.723       .  A
C2976      C2977   1.390       .  A
C2977      H2983   1.083       .  S
S2978      C2979   1.724       .  A
C2979      C2980   1.385       .  A
C2980      H2984   1.083       .  S
C2985      S2991   1.703       .  A
C2985      C2990   1.387       .  A
C2985      C2986   1.397       .  A
C2986      C2987   1.398       .  A
C2986      H2997   1.083       .  S
C2987      C2996   1.364       .  A
C2987      C2988   1.386       .  A
C2988      S2994   1.720       .  A
C2988      C2989   1.409       .  A
C2989      C2990   1.411       .  A
C2989      H2998   1.083       .  S
C2990      C2993   1.379       .  A
S2991      C2992   1.719       .  A
C2992      C2993   1.391       .  A
C2993      H2999   1.083       .  S
S2994      C2995   1.725       .  A
C2995      C2996   1.385       .  A
C2996      H3000   1.084       .  S
C3001      S3007   1.708       .  A
C3001      C3006   1.387       .  A
C3001      C3002   1.403       .  A
C3002      C3003   1.404       .  A
C3002      H3013   1.083       .  S
C3003      C3012   1.374       .  A
C3003      C3004   1.386       .  A
C3004      S3010   1.712       .  A
C3004      C3005   1.406       .  A
C3005      C3006   1.406       .  A
C3005      H3014   1.083       .  S
C3006      C3009   1.375       .  A
S3007      C3008   1.723       .  A
C3008      C3009   1.388       .  A
C3009      H3015   1.083       .  S
S3010      C3011   1.727       .  A
C3011      C3012   1.389       .  A
C3012      H3016   1.083       .  S
C3017      S3023   1.707       .  A
C3017      C3022   1.387       .  A
C3017      C3018   1.395       .  A
C3018      C3019   1.399       .  A
C3018      H3029   1.083       .  S
C3019      C3028   1.357   1_554  A
C3019      C3020   1.386   1_554  A
C3020      S3026   1.710       .  A
C3020      C3021   1.396       .  A
C3021      C3022   1.401   1_556  A
C3021      H3030   1.083       .  S
C3022      C3025   1.359       .  A
S3023      C3024   1.719       .  A
C3024      C3025   1.387       .  A
C3025      H3031   1.084       .  S
S3026      C3027   1.720       .  A
C3027      C3028   1.386       .  A
C3028      H3032   1.084   1_556  S
C3033      S3039   1.713       .  A
C3033      C3038   1.386       .  A
C3033      C3034   1.404       .  A
C3034      C3035   1.405       .  A
C3034      H3045   1.083       .  S
C3035      C3044   1.373       .  A
C3035      C3036   1.386       .  A
C3036      S3042   1.712       .  A
C3036      C3037   1.404       .  A
C3037      C3038   1.405       .  A
C3037      H3046   1.083       .  S
C3038      C3041   1.373       .  A
S3039      C3040   1.724       .  A
C3040      C3041   1.389       .  A
C3041      H3047   1.083       .  S
S3042      C3043   1.724       .  A
C3043      C3044   1.389       .  A
C3044      H3048   1.083       .  S
C3049      S3055   1.705       .  A
C3049      C3054   1.387       .  A
C3049      C3050   1.403       .  A
C3050      C3051   1.402       .  A
C3050      H3061   1.083       .  S
C3051      C3060   1.373       .  A
C3051      C3052   1.387       .  A
C3052      S3058   1.708       .  A
C3052      C3053   1.404       .  A
C3053      C3054   1.404       .  A
C3053      H3062   1.083       .  S
C3054      C3057   1.375       .  A
S3055      C3056   1.725       .  A
C3056      C3057   1.387       .  A
C3057      H3063   1.083       .  S
S3058      C3059   1.724       .  A
C3059      C3060   1.387       .  A
C3060      H3064   1.083       .  S
C3065      S3071   1.711       .  A
C3065      C3070   1.386       .  A
C3065      C3066   1.400       .  A
C3066      C3067   1.403       .  A
C3066      H3077   1.083       .  S
C3067      C3076   1.365       .  A
C3067      C3068   1.387       .  A
C3068      S3074   1.705       .  A
C3068      C3069   1.396       .  A
C3069      C3070   1.399       .  A
C3069      H3078   1.083       .  S
C3070      C3073   1.360       .  A
S3071      C3072   1.723       .  A
C3072      C3073   1.385       .  A
C3073      H3079   1.083       .  S
S3074      C3075   1.720       .  A
C3075      C3076   1.387       .  A
C3076      H3080   1.083       .  S
C3081      S3087   1.712       .  A
C3081      C3086   1.387       .  A
C3081      C3082   1.400       .  A
C3082      C3083   1.403       .  A
C3082      H3093   1.083       .  S
C3083      C3092   1.364       .  A
C3083      C3084   1.387       .  A
C3084      S3090   1.712       .  A
C3084      C3085   1.399       .  A
C3085      C3086   1.402       .  A
C3085      H3094   1.083       .  S
C3086      C3089   1.364       .  A
S3087      C3088   1.721       .  A
C3088      C3089   1.386       .  A
C3089      H3095   1.083       .  S
S3090      C3091   1.719       .  A
C3091      C3092   1.385       .  A
C3092      H3096   1.084       .  S
C3097      S3103   1.693       .  A
C3097      C3102   1.388       .  A
C3097      C3098   1.400       .  A
C3098      C3099   1.397       .  A
C3098      H3109   1.083       .  S
C3099      C3108   1.373       .  A
C3099      C3100   1.388       .  A
C3100      S3106   1.691       .  A
C3100      C3101   1.399       .  A
C3101      C3102   1.397       .  A
C3101      H3110   1.083       .  S
C3102      C3105   1.373       .  A
S3103      C3104   1.727       .  A
C3104      C3105   1.383       .  A
C3105      H3111   1.083       .  S
S3106      C3107   1.727       .  A
C3107      C3108   1.382       .  A
C3108      H3112   1.083       .  S
C3113      S3119   1.711       .  A
C3113      C3118   1.387       .  A
C3113      C3114   1.406       .  A
C3114      C3115   1.406       .  A
C3114      H3125   1.083       .  S
C3115      C3124   1.377       .  A
C3115      C3116   1.387       .  A
C3116      S3122   1.704       .  A
C3116      C3117   1.401       .  A
C3117      C3118   1.401       .  A
C3117      H3126   1.083       .  S
C3118      C3121   1.372       .  A
S3119      C3120   1.726       .  A
C3120      C3121   1.387       .  A
C3121      H3127   1.083       .  S
S3122      C3123   1.722       .  A
C3123      C3124   1.388       .  A
C3124      H3128   1.083       .  S
C3129      S3135   1.713       .  A
C3129      C3134   1.386       .  A
C3129      C3130   1.403       .  A
C3130      C3131   1.405       .  A
C3130      H3141   1.083       .  S
C3131      C3140   1.374       .  A
C3131      C3132   1.386       .  A
C3132      S3138   1.716       .  A
C3132      C3133   1.407       .  A
C3133      C3134   1.408       .  A
C3133      H3142   1.083       .  S
C3134      C3137   1.375       .  A
S3135      C3136   1.724       .  A
C3136      C3137   1.392       .  A
C3137      H3143   1.083       .  S
S3138      C3139   1.727       .  A
C3139      C3140   1.388       .  A
C3140      H3144   1.083       .  S
C3145      S3151   1.712       .  A
C3145      C3150   1.386       .  A
C3145      C3146   1.397       .  A
C3146      C3147   1.402       .  A
C3146      H3157   1.083       .  S
C3147      C3156   1.361       .  A
C3147      C3148   1.386       .  A
C3148      S3154   1.710       .  A
C3148      C3149   1.397       .  A
C3149      C3150   1.401       .  A
C3149      H3158   1.083       .  S
C3150      C3153   1.357       .  A
S3151      C3152   1.720       .  A
C3152      C3153   1.387       .  A
C3153      H3159   1.084       .  S
S3154      C3155   1.721       .  A
C3155      C3156   1.388       .  A
C3156      H3160   1.083       .  S
C3161      S3167   1.708       .  A
C3161      C3166   1.387       .  A
C3161      C3162   1.403       .  A
C3162      C3163   1.403       .  A
C3162      H3173   1.083       .  S
C3163      C3172   1.375       .  A
C3163      C3164   1.387   1_556  A
C3164      S3170   1.710       .  A
C3164      C3165   1.406       .  A
C3165      C3166   1.406   1_554  A
C3165      H3174   1.083       .  S
C3166      C3169   1.376       .  A
S3167      C3168   1.723       .  A
C3168      C3169   1.390       .  A
C3169      H3175   1.083       .  S
S3170      C3171   1.727       .  A
C3171      C3172   1.387   1_554  A
C3172      H3176   1.083       .  S
C3177      S3183   1.719       .  A
C3177      C3182   1.386       .  A
C3177      C3178   1.408       .  A
C3178      C3179   1.410       .  A
C3178      H3189   1.083       .  S
C3179      C3188   1.377       .  A
C3179      C3180   1.387       .  A
C3180      S3186   1.705       .  A
C3180      C3181   1.399       .  A
C3181      C3182   1.400       .  A
C3181      H3190   1.083       .  S
C3182      C3185   1.367       .  A
S3183      C3184   1.725       .  A
C3184      C3185   1.386       .  A
C3185      H3191   1.084       .  S
S3186      C3187   1.719       .  A
C3187      C3188   1.389       .  A
C3188      H3192   1.083       .  S
C3193      S3199   1.712       .  A
C3193      C3198   1.386       .  A
C3193      C3194   1.403       .  A
C3194      C3195   1.405       .  A
C3194      H3205   1.083       .  S
C3195      C3204   1.371       .  A
C3195      C3196   1.387       .  A
C3196      S3202   1.705       .  A
C3196      C3197   1.398       .  A
C3197      C3198   1.400       .  A
C3197      H3206   1.083       .  S
C3198      C3201   1.364       .  A
S3199      C3200   1.722       .  A
C3200      C3201   1.383       .  A
C3201      H3207   1.084       .  S
S3202      C3203   1.721       .  A
C3203      C3204   1.389       .  A
C3204      H3208   1.083       .  S
C3209      S3215   1.711       .  A
C3209      C3214   1.386       .  A
C3209      C3210   1.397       .  A
C3210      C3211   1.401       .  A
C3210      H3221   1.083       .  S
C3211      C3220   1.361       .  A
C3211      C3212   1.386       .  A
C3212      S3218   1.716       .  A
C3212      C3213   1.402       .  A
C3213      C3214   1.406       .  A
C3213      H3222   1.083       .  S
C3214      C3217   1.364       .  A
S3215      C3216   1.719       .  A
C3216      C3217   1.391       .  A
C3217      H3223   1.083       .  S
S3218      C3219   1.724       .  A
C3219      C3220   1.388       .  A
C3220      H3224   1.083       .  S
C3225      S3231   1.697       .  A
C3225      C3230   1.388       .  A
C3225      C3226   1.400       .  A
C3226      C3227   1.399       .  A
C3226      H3237   1.083       .  S
C3227      C3236   1.372       .  A
C3227      C3228   1.387       .  A
C3228      S3234   1.699       .  A
C3228      C3229   1.400       .  A
C3229      C3230   1.399       .  A
C3229      H3238   1.083       .  S
C3230      C3233   1.372       .  A
S3231      C3232   1.725       .  A
C3232      C3233   1.382       .  A
C3233      H3239   1.083       .  S
S3234      C3235   1.725       .  A
C3235      C3236   1.384       .  A
C3236      H3240   1.083       .  S
C3241      S3247   1.714       .  A
C3241      C3246   1.386       .  A
C3241      C3242   1.406       .  A
C3242      C3243   1.407       .  A
C3242      H3253   1.083       .  S
C3243      C3252   1.376       .  A
C3243      C3244   1.387       .  A
C3244      S3250   1.708       .  A
C3244      C3245   1.402       .  A
C3245      C3246   1.403       .  A
C3245      H3254   1.083       .  S
C3246      C3249   1.372       .  A
S3247      C3248   1.727       .  A
C3248      C3249   1.388       .  A
C3249      H3255   1.083       .  S
S3250      C3251   1.723       .  A
C3251      C3252   1.389       .  A
C3252      H3256   1.083       .  S
C3257      S3263   1.720       .  A
C3257      C3262   1.386       .  A
C3257      C3258   1.408       .  A
C3258      C3259   1.410       .  A
C3258      H3269   1.083       .  S
C3259      C3268   1.377       .  A
C3259      C3260   1.387       .  A
C3260      S3266   1.707       .  A
C3260      C3261   1.398       .  A
C3261      C3262   1.400       .  A
C3261      H3270   1.083       .  S
C3262      C3265   1.367       .  A
S3263      C3264   1.725       .  A
C3264      C3265   1.384       .  A
C3265      H3271   1.084       .  S
S3266      C3267   1.718       .  A
C3267      C3268   1.391       .  A
C3268      H3272   1.083       .  S
C3273      S3279   1.701       .  A
C3273      C3278   1.387       .  A
C3273      C3274   1.407       .  A
C3274      C3275   1.404       .  A
C3274      H3285   1.083       .  S
C3275      C3284   1.382       .  A
C3275      C3276   1.388       .  A
C3276      S3282   1.691       .  A
C3276      C3277   1.398       .  A
C3277      C3278   1.395       .  A
C3277      H3286   1.083       .  S
C3278      C3281   1.371       .  A
S3279      C3280   1.729       .  A
C3280      C3281   1.382       .  A
C3281      H3287   1.083       .  S
S3282      C3283   1.727       .  A
C3283      C3284   1.389       .  A
C3284      H3288   1.083       .  S
C3289      S3295   1.714       .  A
C3289      C3294   1.386       .  A
C3289      C3290   1.408       .  A
C3290      C3291   1.408       .  A
C3290      H3301   1.083       .  S
C3291      C3300   1.379       .  A
C3291      C3292   1.387       .  A
C3292      S3298   1.706       .  A
C3292      C3293   1.401       .  A
C3293      C3294   1.402       .  A
C3293      H3302   1.083       .  S
C3294      C3297   1.372       .  A
S3295      C3296   1.727       .  A
C3296      C3297   1.388       .  A
C3297      H3303   1.083       .  S
S3298      C3299   1.723       .  A
C3299      C3300   1.390       .  A
C3300      H3304   1.083       .  S
C3305      S3311   1.713       .  A
C3305      C3310   1.386       .  A
C3305      C3306   1.403       .  A
C3306      C3307   1.405       .  A
C3306      H3317   1.083       .  S
C3307      C3316   1.371       .  A
C3307      C3308   1.387       .  A
C3308      S3314   1.714       .  A
C3308      C3309   1.403       .  A
C3309      C3310   1.405       .  A
C3309      H3318   1.083       .  S
C3310      C3313   1.371       .  A
S3311      C3312   1.724       .  A
C3312      C3313   1.390       .  A
C3313      H3319   1.083       .  S
S3314      C3315   1.720       .  A
C3315      C3316   1.387       .  A
C3316      H3320   1.083       .  S
C3321      S3327   1.702       .  A
C3321      C3326   1.387       .  A
C3321      C3322   1.403       .  A
C3322      C3323   1.402       .  A
C3322      H3333   1.083       .  S
C3323      C3332   1.375       .  A
C3323      C3324   1.386       .  A
C3324      S3330   1.713       .  A
C3324      C3325   1.410       .  A
C3325      C3326   1.409       .  A
C3325      H3334   1.083       .  S
C3326      C3329   1.384       .  A
S3327      C3328   1.726       .  A
C3328      C3329   1.391       .  A
C3329      H3335   1.083       .  S
S3330      C3331   1.725       .  A
C3331      C3332   1.387       .  A
C3332      H3336   1.083       .  S
C3337      S3343   1.711       .  A
C3337      C3342   1.387       .  A
C3337      C3338   1.406       .  A
C3338      C3339   1.406       .  A
C3338      H3349   1.083       .  S
C3339      C3348   1.378       .  A
C3339      C3340   1.387       .  A
C3340      S3346   1.709       .  A
C3340      C3341   1.405       .  A
C3341      C3342   1.405       .  A
C3341      H3350   1.083       .  S
C3342      C3345   1.376       .  A
S3343      C3344   1.725       .  A
C3344      C3345   1.389       .  A
C3345      H3351   1.083       .  S
S3346      C3347   1.724       .  A
C3347      C3348   1.390       .  A
C3348      H3352   1.083       .  S
C3353      S3359   1.714       .  A
C3353      C3358   1.386       .  A
C3353      C3354   1.408       .  A
C3354      C3355   1.408       .  A
C3354      H3365   1.083       .  S
C3355      C3364   1.378       .  A
C3355      C3356   1.386       .  A
C3356      S3362   1.713       .  A
C3356      C3357   1.406       .  A
C3357      C3358   1.407       .  A
C3357      H3366   1.083       .  S
C3358      C3361   1.379       .  A
S3359      C3360   1.727       .  A
C3360      C3361   1.392       .  A
C3361      H3367   1.083       .  S
S3362      C3363   1.724       .  A
C3363      C3364   1.392       .  A
C3364      H3368   1.083       .  S
C3369      S3375   1.711       .  A
C3369      C3374   1.387       .  A
C3369      C3370   1.404   1_455  A
C3370      C3371   1.404       .  A
C3370      H3381   1.083       .  S
C3371      C3380   1.374       .  A
C3371      C3372   1.387       .  A
C3372      S3378   1.708       .  A
C3372      C3373   1.403       .  A
C3373      C3374   1.403   1_655  A
C3373      H3382   1.083       .  S
C3374      C3377   1.372       .  A
S3375      C3376   1.724       .  A
C3376      C3377   1.387       .  A
C3377      H3383   1.083       .  S
S3378      C3379   1.724       .  A
C3379      C3380   1.387       .  A
C3380      H3384   1.083       .  S
C3385      S3391   1.706   1_554  A
C3385      C3390   1.387       .  A
C3385      C3386   1.402   1_554  A
C3386      C3387   1.402       .  A
C3386      H3397   1.083       .  S
C3387      C3396   1.371       .  A
C3387      C3388   1.386   1_556  A
C3388      S3394   1.715       .  A
C3388      C3389   1.408       .  A
C3389      C3390   1.409       .  A
C3389      H3398   1.083       .  S
C3390      C3393   1.379       .  A
S3391      C3392   1.725   1_556  A
C3392      C3393   1.391       .  A
C3393      H3399   1.083       .  S
S3394      C3395   1.726   1_554  A
C3395      C3396   1.388       .  A
C3396      H3400   1.083       .  S
C3401      S3407   1.708       .  A
C3401      C3406   1.387       .  A
C3401      C3402   1.405       .  A
C3402      C3403   1.405       .  A
C3402      H3413   1.083       .  S
C3403      C3412   1.377       .  A
C3403      C3404   1.387   1_556  A
C3404      S3410   1.709       .  A
C3404      C3405   1.405   1_554  A
C3405      C3406   1.405       .  A
C3405      H3414   1.083   1_556  S
C3406      C3409   1.376       .  A
S3407      C3408   1.725       .  A
C3408      C3409   1.389       .  A
C3409      H3415   1.083       .  S
S3410      C3411   1.726       .  A
C3411      C3412   1.388   1_554  A
C3412      H3416   1.083       .  S
C3417      S3423   1.715       .  A
C3417      C3422   1.386       .  A
C3417      C3418   1.401       .  A
C3418      C3419   1.404       .  A
C3418      H3429   1.083       .  S
C3419      C3428   1.363       .  A
C3419      C3420   1.386       .  A
C3420      S3426   1.711       .  A
C3420      C3421   1.397       .  A
C3421      C3422   1.401       .  A
C3421      H3430   1.083       .  S
C3422      C3425   1.361       .  A
S3423      C3424   1.723       .  A
C3424      C3425   1.388       .  A
C3425      H3431   1.083       .  S
S3426      C3427   1.720       .  A
C3427      C3428   1.389       .  A
C3428      H3432   1.083       .  S
C3433      S3439   1.718       .  A
C3433      C3438   1.386       .  A
C3433      C3434   1.406       .  A
C3434      C3435   1.408       .  A
C3434      H3445   1.083       .  S
C3435      C3444   1.373       .  A
C3435      C3436   1.388       .  A
C3436      S3442   1.702       .  A
C3436      C3437   1.395       .  A
C3437      C3438   1.398       .  A
C3437      H3446   1.083       .  S
C3438      C3441   1.362       .  A
S3439      C3440   1.723       .  A
C3440      C3441   1.383       .  A
C3441      H3447   1.084       .  S
S3442      C3443   1.716       .  A
C3443      C3444   1.387       .  A
C3444      H3448   1.083       .  S
C3449      S3455   1.717       .  A
C3449      C3454   1.386       .  A
C3449      C3450   1.406       .  A
C3450      C3451   1.408       .  A
C3450      H3461   1.083       .  S
C3451      C3460   1.372       .  A
C3451      C3452   1.386       .  A
C3452      S3458   1.711       .  A
C3452      C3453   1.400       .  A
C3453      C3454   1.403       .  A
C3453      H3462   1.083       .  S
C3454      C3457   1.368       .  A
S3455      C3456   1.726       .  A
C3456      C3457   1.390       .  A
C3457      H3463   1.083       .  S
S3458      C3459   1.722       .  A
C3459      C3460   1.393       .  A
C3460      H3464   1.083       .  S
C3465      S3471   1.716       .  A
C3465      C3470   1.386       .  A
C3465      C3466   1.407       .  A
C3466      C3467   1.408       .  A
C3466      H3477   1.083       .  S
C3467      C3476   1.375       .  A
C3467      C3468   1.387       .  A
C3468      S3474   1.709       .  A
C3468      C3469   1.401       .  A
C3469      C3470   1.402       .  A
C3469      H3478   1.083       .  S
C3470      C3473   1.370       .  A
S3471      C3472   1.727       .  A
C3472      C3473   1.387       .  A
C3473      H3479   1.083       .  S
S3474      C3475   1.723       .  A
C3475      C3476   1.390       .  A
C3476      H3480   1.083       .  S
C3481      S3487   1.697       .  A
C3481      C3486   1.387       .  A
C3481      C3482   1.400       .  A
C3482      C3483   1.398       .  A
C3482      H3493   1.083       .  S
C3483      C3492   1.374       .  A
C3483      C3484   1.387       .  A
C3484      S3490   1.698       .  A
C3484      C3485   1.403       .  A
C3485      C3486   1.401       .  A
C3485      H3494   1.083       .  S
C3486      C3489   1.375       .  A
S3487      C3488   1.725       .  A
C3488      C3489   1.386       .  A
C3489      H3495   1.083       .  S
S3490      C3491   1.728       .  A
C3491      C3492   1.384       .  A
C3492      H3496   1.083       .  S
C3497      S3503   1.712       .  A
C3497      C3502   1.387       .  A
C3497      C3498   1.404       .  A
C3498      C3499   1.405       .  A
C3498      H3509   1.083       .  S
C3499      C3508   1.372       .  A
C3499      C3500   1.386       .  A
C3500      S3506   1.709       .  A
C3500      C3501   1.402       .  A
C3501      C3502   1.403       .  A
C3501      H3510   1.083       .  S
C3502      C3505   1.371       .  A
S3503      C3504   1.723       .  A
C3504      C3505   1.385       .  A
C3505      H3511   1.083       .  S
S3506      C3507   1.724       .  A
C3507      C3508   1.389       .  A
C3508      H3512   1.083       .  S
C3513      S3519   1.717   1_655  A
C3513      C3518   1.385       .  A
C3513      C3514   1.402   1_655  A
C3514      C3515   1.406       .  A
C3514      H3525   1.083       .  S
C3515      C3524   1.366       .  A
C3515      C3516   1.386   1_455  A
C3516      S3522   1.715       .  A
C3516      C3517   1.400       .  A
C3517      C3518   1.404       .  A
C3517      H3526   1.083       .  S
C3518      C3521   1.365       .  A
S3519      C3520   1.724   1_455  A
C3520      C3521   1.390       .  A
C3521      H3527   1.083       .  S
S3522      C3523   1.721       .  A
C3523      C3524   1.392   1_655  A
C3524      H3528   1.083       .  S
C3529      S3535   1.717       .  A
C3529      C3534   1.386       .  A
C3529      C3530   1.410       .  A
C3530      C3531   1.410       .  A
C3530      H3541   1.083       .  S
C3531      C3540   1.380       .  A
C3531      C3532   1.387       .  A
C3532      S3538   1.705       .  A
C3532      C3533   1.401       .  A
C3533      C3534   1.401       .  A
C3533      H3542   1.083       .  S
C3534      C3537   1.373       .  A
S3535      C3536   1.730       .  A
C3536      C3537   1.388       .  A
C3537      H3543   1.083       .  S
S3538      C3539   1.722       .  A
C3539      C3540   1.392       .  A
C3540      H3544   1.083       .  S
C3545      S3551   1.708       .  A
C3545      C3550   1.387       .  A
C3545      C3546   1.404       .  A
C3546      C3547   1.404       .  A
C3546      H3557   1.083       .  S
C3547      C3556   1.376       .  A
C3547      C3548   1.387       .  A
C3548      S3554   1.709       .  A
C3548      C3549   1.405       .  A
C3549      C3550   1.405       .  A
C3549      H3558   1.083       .  S
C3550      C3553   1.377       .  A
S3551      C3552   1.724       .  A
C3552      C3553   1.389       .  A
C3553      H3559   1.083       .  S
S3554      C3555   1.726       .  A
C3555      C3556   1.389       .  A
C3556      H3560   1.083       .  S
C3561      S3567   1.695       .  A
C3561      C3566   1.388       .  A
C3561      C3562   1.398       .  A
C3562      C3563   1.397       .  A
C3562      H3573   1.083       .  S
C3563      C3572   1.370       .  A
C3563      C3564   1.388       .  A
C3564      S3570   1.696       .  A
C3564      C3565   1.400       .  A
C3565      C3566   1.398       .  A
C3565      H3574   1.083       .  S
C3566      C3569   1.370       .  A
S3567      C3568   1.725       .  A
C3568      C3569   1.383       .  A
C3569      H3575   1.083       .  S
S3570      C3571   1.726       .  A
C3571      C3572   1.382       .  A
C3572      H3576   1.083       .  S
C3577      S3583   1.723       .  A
C3577      C3582   1.386       .  A
C3577      C3578   1.409       .  A
C3578      C3579   1.411       .  A
C3578      H3589   1.083       .  S
C3579      C3588   1.377       .  A
C3579      C3580   1.387       .  A
C3580      S3586   1.704       .  A
C3580      C3581   1.397       .  A
C3581      C3582   1.399       .  A
C3581      H3590   1.083       .  S
C3582      C3585   1.364       .  A
S3583      C3584   1.726       .  A
C3584      C3585   1.385       .  A
C3585      H3591   1.084       .  S
S3586      C3587   1.719       .  A
C3587      C3588   1.390       .  A
C3588      H3592   1.083       .  S
C3593      S3599   1.716       .  A
C3593      C3598   1.385       .  A
C3593      C3594   1.401       .  A
C3594      C3595   1.405       .  A
C3594      H3605   1.083       .  S
C3595      C3604   1.364       .  A
C3595      C3596   1.385       .  A
C3596      S3602   1.718       .  A
C3596      C3597   1.402       .  A
C3597      C3598   1.406       .  A
C3597      H3606   1.083       .  S
C3598      C3601   1.367       .  A
S3599      C3600   1.724       .  A
C3600      C3601   1.392       .  A
C3601      H3607   1.083       .  S
S3602      C3603   1.722       .  A
C3603      C3604   1.392       .  A
C3604      H3608   1.084       .  S
C3609      S3615   1.712       .  A
C3609      C3614   1.387       .  A
C3609      C3610   1.404       .  A
C3610      C3611   1.405       .  A
C3610      H3621   1.083       .  S
C3611      C3620   1.373       .  A
C3611      C3612   1.388       .  A
C3612      S3618   1.702       .  A
C3612      C3613   1.398       .  A
C3613      C3614   1.399       .  A
C3613      H3622   1.083       .  S
C3614      C3617   1.366       .  A
S3615      C3616   1.725       .  A
C3616      C3617   1.385       .  A
C3617      H3623   1.083       .  S
S3618      C3619   1.720       .  A
C3619      C3620   1.387       .  A
C3620      H3624   1.083       .  S
C3625      S3631   1.716       .  A
C3625      C3630   1.387       .  A
C3625      C3626   1.404   1_455  A
C3626      C3627   1.407       .  A
C3626      H3637   1.083       .  S
C3627      C3636   1.373       .  A
C3627      C3628   1.388       .  A
C3628      S3634   1.707       .  A
C3628      C3629   1.399       .  A
C3629      C3630   1.401   1_655  A
C3629      H3638   1.083       .  S
C3630      C3633   1.365       .  A
S3631      C3632   1.722       .  A
C3632      C3633   1.385       .  A
C3633      H3639   1.084       .  S
S3634      C3635   1.718       .  A
C3635      C3636   1.387       .  A
C3636      H3640   1.083       .  S
C3641      S3647   1.707       .  A
C3641      C3646   1.387       .  A
C3641      C3642   1.402       .  A
C3642      C3643   1.402       .  A
C3642      H3653   1.083       .  S
C3643      C3652   1.372       .  A
C3643      C3644   1.387       .  A
C3644      S3650   1.710       .  A
C3644      C3645   1.404       .  A
C3645      C3646   1.405       .  A
C3645      H3654   1.083       .  S
C3646      C3649   1.373       .  A
S3647      C3648   1.723       .  A
C3648      C3649   1.390       .  A
C3649      H3655   1.083       .  S
S3650      C3651   1.723       .  A
C3651      C3652   1.386       .  A
C3652      H3656   1.083       .  S
C3657      S3663   1.712       .  A
C3657      C3662   1.386       .  A
C3657      C3658   1.400       .  A
C3658      C3659   1.404       .  A
C3658      H3669   1.083       .  S
C3659      C3668   1.366       .  A
C3659      C3660   1.386       .  A
C3660      S3666   1.709       .  A
C3660      C3661   1.398       .  A
C3661      C3662   1.401       .  A
C3661      H3670   1.083       .  S
C3662      C3665   1.362       .  A
S3663      C3664   1.722       .  A
C3664      C3665   1.388       .  A
C3665      H3671   1.083       .  S
S3666      C3667   1.722       .  A
C3667      C3668   1.389       .  A
C3668      H3672   1.083       .  S
C3673      S3679   1.711       .  A
C3673      C3678   1.386       .  A
C3673      C3674   1.407       .  A
C3674      C3675   1.406       .  A
C3674      H3685   1.083       .  S
C3675      C3684   1.377       .  A
C3675      C3676   1.387       .  A
C3676      S3682   1.709       .  A
C3676      C3677   1.405       .  A
C3677      C3678   1.405       .  A
C3677      H3686   1.083       .  S
C3678      C3681   1.379       .  A
S3679      C3680   1.728       .  A
C3680      C3681   1.391       .  A
C3681      H3687   1.083       .  S
S3682      C3683   1.723       .  A
C3683      C3684   1.388       .  A
C3684      H3688   1.083       .  S
C3689      S3695   1.709       .  A
C3689      C3694   1.387       .  A
C3689      C3690   1.406       .  A
C3690      C3691   1.405       .  A
C3690      H3701   1.083       .  S
C3691      C3700   1.377       .  A
C3691      C3692   1.386       .  A
C3692      S3698   1.711       .  A
C3692      C3693   1.405       .  A
C3693      C3694   1.405       .  A
C3693      H3702   1.083       .  S
C3694      C3697   1.377       .  A
S3695      C3696   1.727       .  A
C3696      C3697   1.388       .  A
C3697      H3703   1.083       .  S
S3698      C3699   1.725       .  A
C3699      C3700   1.390       .  A
C3700      H3704   1.083       .  S
C3705      S3711   1.710       .  A
C3705      C3710   1.386       .  A
C3705      C3706   1.397       .  A
C3706      C3707   1.402       .  A
C3706      H3717   1.083       .  S
C3707      C3716   1.361       .  A
C3707      C3708   1.386       .  A
C3708      S3714   1.711       .  A
C3708      C3709   1.398       .  A
C3709      C3710   1.402       .  A
C3709      H3718   1.083       .  S
C3710      C3713   1.361       .  A
S3711      C3712   1.720       .  A
C3712      C3713   1.388       .  A
C3713      H3719   1.083       .  S
S3714      C3715   1.721       .  A
C3715      C3716   1.389       .  A
C3716      H3720   1.083       .  S
C3721      S3727   1.705       .  A
C3721      C3726   1.387   1_554  A
C3721      C3722   1.400       .  A
C3722      C3723   1.400   1_554  A
C3722      H3733   1.083       .  S
C3723      C3732   1.370       .  A
C3723      C3724   1.387       .  A
C3724      S3730   1.711       .  A
C3724      C3725   1.406       .  A
C3725      C3726   1.406       .  A
C3725      H3734   1.083       .  S
C3726      C3729   1.375       .  A
S3727      C3728   1.724       .  A
C3728      C3729   1.389   1_554  A
C3729      H3735   1.083       .  S
S3730      C3731   1.726       .  A
C3731      C3732   1.384       .  A
C3732      H3736   1.083   1_556  S
C3737      S3743   1.703       .  A
C3737      C3742   1.387   1_556  A
C3737      C3738   1.400       .  A
C3738      C3739   1.400   1_556  A
C3738      H3749   1.083       .  S
C3739      C3748   1.369       .  A
C3739      C3740   1.387       .  A
C3740      S3746   1.711       .  A
C3740      C3741   1.405       .  A
C3741      C3742   1.406       .  A
C3741      H3750   1.083       .  S
C3742      C3745   1.375       .  A
S3743      C3744   1.723       .  A
C3744      C3745   1.389   1_556  A
C3745      H3751   1.083       .  S
S3746      C3747   1.725       .  A
C3747      C3748   1.385       .  A
C3748      H3752   1.083   1_554  S
C3753      S3759   1.713       .  A
C3753      C3758   1.386       .  A
C3753      C3754   1.406       .  A
C3754      C3755   1.407       .  A
C3754      H3765   1.083       .  S
C3755      C3764   1.377       .  A
C3755      C3756   1.386       .  A
C3756      S3762   1.705       .  A
C3756      C3757   1.402       .  A
C3757      C3758   1.402       .  A
C3757      H3766   1.083       .  S
C3758      C3761   1.371       .  A
S3759      C3760   1.723       .  A
C3760      C3761   1.386       .  A
C3761      H3767   1.084       .  S
S3762      C3763   1.724       .  A
C3763      C3764   1.392       .  A
C3764      H3768   1.083       .  S
C3769      S3775   1.712       .  A
C3769      C3774   1.386       .  A
C3769      C3770   1.400       .  A
C3770      C3771   1.403       .  A
C3770      H3781   1.083       .  S
C3771      C3780   1.365       .  A
C3771      C3772   1.386       .  A
C3772      S3778   1.710       .  A
C3772      C3773   1.398       .  A
C3773      C3774   1.402       .  A
C3773      H3782   1.083       .  S
C3774      C3777   1.363       .  A
S3775      C3776   1.723       .  A
C3776      C3777   1.388       .  A
C3777      H3783   1.083       .  S
S3778      C3779   1.722       .  A
C3779      C3780   1.388       .  A
C3780      H3784   1.083       .  S
C3785      S3791   1.700       .  A
C3785      C3790   1.388       .  A
C3785      C3786   1.402       .  A
C3786      C3787   1.400       .  A
C3786      H3797   1.083       .  S
C3787      C3796   1.375       .  A
C3787      C3788   1.387       .  A
C3788      S3794   1.700       .  A
C3788      C3789   1.403       .  A
C3789      C3790   1.401       .  A
C3789      H3798   1.083       .  S
C3790      C3793   1.376       .  A
S3791      C3792   1.724       .  A
C3792      C3793   1.385       .  A
C3793      H3799   1.083       .  S
S3794      C3795   1.726       .  A
C3795      C3796   1.385       .  A
C3796      H3800   1.083       .  S
C3801      S3807   1.709       .  A
C3801      C3806   1.387       .  A
C3801      C3802   1.405       .  A
C3802      C3803   1.405       .  A
C3802      H3813   1.083       .  S
C3803      C3812   1.376       .  A
C3803      C3804   1.387       .  A
C3804      S3810   1.709       .  A
C3804      C3805   1.404       .  A
C3805      C3806   1.404       .  A
C3805      H3814   1.083       .  S
C3806      C3809   1.376       .  A
S3807      C3808   1.727       .  A
C3808      C3809   1.389       .  A
C3809      H3815   1.083       .  S
S3810      C3811   1.724       .  A
C3811      C3812   1.389       .  A
C3812      H3816   1.083       .  S
C3817      S3823   1.713       .  A
C3817      C3822   1.386       .  A
C3817      C3818   1.407       .  A
C3818      C3819   1.407       .  A
C3818      H3829   1.083       .  S
C3819      C3828   1.378       .  A
C3819      C3820   1.387       .  A
C3820      S3826   1.705       .  A
C3820      C3821   1.401       .  A
C3821      C3822   1.401       .  A
C3821      H3830   1.083       .  S
C3822      C3825   1.372       .  A
S3823      C3824   1.726       .  A
C3824      C3825   1.387       .  A
C3825      H3831   1.083       .  S
S3826      C3827   1.723       .  A
C3827      C3828   1.391       .  A
C3828      H3832   1.083       .  S
C3833      S3839   1.700       .  A
C3833      C3838   1.388   1_455  A
C3833      C3834   1.402   1_455  A
C3834      C3835   1.401       .  A
C3834      H3845   1.083   1_655  S
C3835      C3844   1.374       .  A
C3835      C3836   1.388       .  A
C3836      S3842   1.697       .  A
C3836      C3837   1.400       .  A
C3837      C3838   1.398       .  A
C3837      H3846   1.083       .  S
C3838      C3841   1.371   1_655  A
S3839      C3840   1.726       .  A
C3840      C3841   1.383       .  A
C3841      H3847   1.083   1_455  S
S3842      C3843   1.725       .  A
C3843      C3844   1.387       .  A
C3844      H3848   1.083       .  S
C3849      S3855   1.718       .  A
C3849      C3854   1.386       .  A
C3849      C3850   1.409       .  A
C3850      C3851   1.410       .  A
C3850      H3861   1.083       .  S
C3851      C3860   1.378       .  A
C3851      C3852   1.386       .  A
C3852      S3858   1.712       .  A
C3852      C3853   1.403       .  A
C3853      C3854   1.404       .  A
C3853      H3862   1.083       .  S
C3854      C3857   1.374       .  A
S3855      C3856   1.727       .  A
C3856      C3857   1.388       .  A
C3857      H3863   1.083       .  S
S3858      C3859   1.722       .  A
C3859      C3860   1.394       .  A
C3860      H3864   1.083       .  S
C3865      S3871   1.708       .  A
C3865      C3870   1.387       .  A
C3865      C3866   1.404       .  A
C3866      C3867   1.404       .  A
C3866      H3877   1.083       .  S
C3867      C3876   1.375       .  A
C3867      C3868   1.386       .  A
C3868      S3874   1.716       .  A
C3868      C3869   1.409       .  A
C3869      C3870   1.408       .  A
C3869      H3878   1.083       .  S
C3870      C3873   1.380       .  A
S3871      C3872   1.724       .  A
C3872      C3873   1.391       .  A
C3873      H3879   1.083       .  S
S3874      C3875   1.728       .  A
C3875      C3876   1.390       .  A
C3876      H3880   1.083       .  S
C3881      S3887   1.712       .  A
C3881      C3886   1.387       .  A
C3881      C3882   1.402       .  A
C3882      C3883   1.404       .  A
C3882      H3893   1.083       .  S
C3883      C3892   1.371       .  A
C3883      C3884   1.387       .  A
C3884      S3890   1.712       .  A
C3884      C3885   1.402       .  A
C3885      C3886   1.404       .  A
C3885      H3894   1.083       .  S
C3886      C3889   1.369       .  A
S3887      C3888   1.720       .  A
C3888      C3889   1.386       .  A
C3889      H3895   1.084       .  S
S3890      C3891   1.720       .  A
C3891      C3892   1.386       .  A
C3892      H3896   1.083       .  S
C3897      S3903   1.715       .  A
C3897      C3902   1.387       .  A
C3897      C3898   1.406       .  A
C3898      C3899   1.408       .  A
C3898      H3909   1.083       .  S
C3899      C3908   1.374   1_655  A
C3899      C3900   1.387   1_655  A
C3900      S3906   1.708       .  A
C3900      C3901   1.400       .  A
C3901      C3902   1.402   1_455  A
C3901      H3910   1.083       .  S
C3902      C3905   1.368       .  A
S3903      C3904   1.723       .  A
C3904      C3905   1.385       .  A
C3905      H3911   1.083       .  S
S3906      C3907   1.721       .  A
C3907      C3908   1.391       .  A
C3908      H3912   1.083       .  S
C3913      S3919   1.699   1_556  A
C3913      C3918   1.387   1_556  A
C3913      C3914   1.404       .  A
C3914      C3915   1.402   1_455  A
C3914      H3925   1.083       .  S
C3915      C3924   1.377       .  A
C3915      C3916   1.387   1_556  A
C3916      S3922   1.696       .  A
C3916      C3917   1.400       .  A
C3917      C3918   1.398   1_655  A
C3917      H3926   1.083       .  S
C3918      C3921   1.374       .  A
S3919      C3920   1.730       .  A
C3920      C3921   1.383       .  A
C3921      H3927   1.083       .  S
S3922      C3923   1.726   1_554  A
C3923      C3924   1.388       .  A
C3924      H3928   1.083       .  S
C3929      S3935   1.701       .  A
C3929      C3934   1.387       .  A
C3929      C3930   1.403       .  A
C3930      C3931   1.402       .  A
C3930      H3941   1.083       .  S
C3931      C3940   1.375       .  A
C3931      C3932   1.388   1_655  A
C3932      S3938   1.697       .  A
C3932      C3933   1.399       .  A
C3933      C3934   1.398   1_455  A
C3933      H3942   1.083       .  S
C3934      C3937   1.371       .  A
S3935      C3936   1.727       .  A
C3936      C3937   1.383       .  A
C3937      H3943   1.083   1_655  S
S3938      C3939   1.723       .  A
C3939      C3940   1.384   1_455  A
C3940      H3944   1.083       .  S
C3945      S3951   1.705       .  A
C3945      C3950   1.387       .  A
C3945      C3946   1.400       .  A
C3946      C3947   1.401       .  A
C3946      H3957   1.083       .  S
C3947      C3956   1.370       .  A
C3947      C3948   1.387       .  A
C3948      S3954   1.707       .  A
C3948      C3949   1.403       .  A
C3949      C3950   1.403       .  A
C3949      H3958   1.083       .  S
C3950      C3953   1.371       .  A
S3951      C3952   1.722       .  A
C3952      C3953   1.386       .  A
C3953      H3959   1.083       .  S
S3954      C3955   1.724       .  A
C3955      C3956   1.385       .  A
C3956      H3960   1.083       .  S
C3961      S3967   1.705       .  A
C3961      C3966   1.387       .  A
C3961      C3962   1.400       .  A
C3962      C3963   1.401       .  A
C3962      H3973   1.083       .  S
C3963      C3972   1.368       .  A
C3963      C3964   1.386       .  A
C3964      S3970   1.717       .  A
C3964      C3965   1.409       .  A
C3965      C3966   1.410       .  A
C3965      H3974   1.083       .  S
C3966      C3969   1.379       .  A
S3967      C3968   1.721       .  A
C3968      C3969   1.391       .  A
C3969      H3975   1.083       .  S
S3970      C3971   1.727       .  A
C3971      C3972   1.387       .  A
C3972      H3976   1.083       .  S
C3977      S3983   1.699       .  A
C3977      C3982   1.388       .  A
C3977      C3978   1.401       .  A
C3978      C3979   1.400       .  A
C3978      H3989   1.083       .  S
C3979      C3988   1.373       .  A
C3979      C3980   1.388       .  A
C3980      S3986   1.698       .  A
C3980      C3981   1.400       .  A
C3981      C3982   1.399       .  A
C3981      H3990   1.083       .  S
C3982      C3985   1.372       .  A
S3983      C3984   1.726       .  A
C3984      C3985   1.384       .  A
C3985      H3991   1.083       .  S
S3986      C3987   1.725       .  A
C3987      C3988   1.385       .  A
C3988      H3992   1.083       .  S
C3993      S3999   1.701       .  A
C3993      C3998   1.388       .  A
C3993      C3994   1.396       .  A
C3994      C3995   1.397       .  A
C3994      H4005   1.083       .  S
C3995      C4004   1.365       .  A
C3995      C3996   1.386       .  A
C3996      S4002   1.719       .  A
C3996      C3997   1.409       .  A
C3997      C3998   1.411       .  A
C3997      H4006   1.083       .  S
C3998      C4001   1.379       .  A
S3999      C4000   1.717       .  A
C4000      C4001   1.391       .  A
C4001      H4007   1.083       .  S
S4002      C4003   1.725       .  A
C4003      C4004   1.384       .  A
C4004      H4008   1.084       .  S
C4009      S4015   1.714       .  A
C4009      C4014   1.386       .  A
C4009      C4010   1.400       .  A
C4010      C4011   1.404       .  A
C4010      H4021   1.083       .  S
C4011      C4020   1.364       .  A
C4011      C4012   1.386       .  A
C4012      S4018   1.714       .  A
C4012      C4013   1.401       .  A
C4013      C4014   1.405       .  A
C4013      H4022   1.083       .  S
C4014      C4017   1.365       .  A
S4015      C4016   1.722       .  A
C4016      C4017   1.391       .  A
C4017      H4023   1.083       .  S
S4018      C4019   1.723       .  A
C4019      C4020   1.390       .  A
C4020      H4024   1.083       .  S
C4025      S4031   1.712       .  A
C4025      C4030   1.386       .  A
C4025      C4026   1.404       .  A
C4026      C4027   1.405       .  A
C4026      H4037   1.083       .  S
C4027      C4036   1.375       .  A
C4027      C4028   1.386       .  A
C4028      S4034   1.716       .  A
C4028      C4029   1.409       .  A
C4029      C4030   1.410       .  A
C4029      H4038   1.083       .  S
C4030      C4033   1.379       .  A
S4031      C4032   1.724       .  A
C4032      C4033   1.394       .  A
C4033      H4039   1.083       .  S
S4034      C4035   1.727       .  A
C4035      C4036   1.390       .  A
C4036      H4040   1.083       .  S
C4041      S4047   1.711       .  A
C4041      C4046   1.387       .  A
C4041      C4042   1.404       .  A
C4042      C4043   1.404       .  A
C4042      H4053   1.083       .  S
C4043      C4052   1.374       .  A
C4043      C4044   1.387       .  A
C4044      S4050   1.708       .  A
C4044      C4045   1.403       .  A
C4045      C4046   1.403       .  A
C4045      H4054   1.083       .  S
C4046      C4049   1.371       .  A
S4047      C4048   1.723       .  A
C4048      C4049   1.388       .  A
C4049      H4055   1.083       .  S
S4050      C4051   1.724       .  A
C4051      C4052   1.387       .  A
C4052      H4056   1.083       .  S
C4057      S4063   1.711       .  A
C4057      C4062   1.387       .  A
C4057      C4058   1.401       .  A
C4058      C4059   1.403       .  A
C4058      H4069   1.083       .  S
C4059      C4068   1.370       .  A
C4059      C4060   1.386       .  A
C4060      S4066   1.718       .  A
C4060      C4061   1.407       .  A
C4061      C4062   1.408       .  A
C4061      H4070   1.083       .  S
C4062      C4065   1.375       .  A
S4063      C4064   1.722       .  A
C4064      C4065   1.391       .  A
C4065      H4071   1.083       .  S
S4066      C4067   1.725       .  A
C4067      C4068   1.386       .  A
C4068      H4072   1.083       .  S
C4073      S4079   1.718       .  A
C4073      C4078   1.386       .  A
C4073      C4074   1.407   1_455  A
C4074      C4075   1.409       .  A
C4074      H4085   1.083       .  S
C4075      C4084   1.377       .  A
C4075      C4076   1.387       .  A
C4076      S4082   1.704       .  A
C4076      C4077   1.398       .  A
C4077      C4078   1.400   1_655  A
C4077      H4086   1.083       .  S
C4078      C4081   1.366       .  A
S4079      C4080   1.724       .  A
C4080      C4081   1.385       .  A
C4081      H4087   1.084       .  S
S4082      C4083   1.720       .  A
C4083      C4084   1.390       .  A
C4084      H4088   1.083       .  S
C4089      S4095   1.716       .  A
C4089      C4094   1.385       .  A
C4089      C4090   1.402       .  A
C4090      C4091   1.406       .  A
C4090      H4101   1.083       .  S
C4091      C4100   1.365       .  A
C4091      C4092   1.386       .  A
C4092      S4098   1.712       .  A
C4092      C4093   1.398       .  A
C4093      C4094   1.402       .  A
C4093      H4102   1.083       .  S
C4094      C4097   1.363       .  A
S4095      C4096   1.724       .  A
C4096      C4097   1.389       .  A
C4097      H4103   1.083       .  S
S4098      C4099   1.720       .  A
C4099      C4100   1.391       .  A
C4100      H4104   1.083       .  S
