geometry optimzed in LAMMPS
_audit_creation_date              2020-12-01 
_audit_creation_method            'lammps2cif' 
_symmetry_space_group_name_H-M    'P1' 
_symmetry_Int_Tables_number       1 
_symmetry_cell_setting            triclinic 
loop_ 
_symmetry_equiv_pos_as_xyz 
  x,y,z 
_cell_length_a                    35.51322314 
_cell_length_b                    35.520552872788265 
_cell_length_c                    43.80208384755584 
_cell_angle_alpha                 89.85627637911979 
_cell_angle_beta                  89.60585801392595 
_cell_angle_gamma                 90.01484839293101 
loop_ 
_atom_site_label 
_atom_site_type_symbol 
_atom_site_fract_x 
_atom_site_fract_y 
_atom_site_fract_z 
_atom_site_charge 
O1          O  0.70690562  0.50521948  0.40230484    -0.86000
O2          O  0.75289132  0.45558769  0.37355167    -0.83000
C3          C  0.75994139  0.42419878  0.36139875     0.97500
O4          O  0.74000226  0.41187345  0.33975692    -0.83100
O5          O  0.67136485  0.38729558  0.36269247    -0.85700
C6          C  0.63848042  0.38800776  0.37376352     1.02000
O7          O  0.62033497  0.41839671  0.37353928    -0.78500
O8          O  0.66407992  0.46220955  0.41183669    -0.78700
C9          C  0.69116839  0.48238057  0.42083261     1.01900
O10         O  0.68816400  0.53843780  0.34236930    -0.86000
O11         O  0.74090077  0.49042865  0.31548283    -0.83100
C12         C  0.72784948  0.47562404  0.29155981     0.97500
O13         O  0.70066354  0.45294762  0.29286103    -0.83100
O14         O  0.63345662  0.42658694  0.31381877    -0.85700
C15         C  0.60915027  0.45277144  0.31425183     1.02000
O16         O  0.61082231  0.47934512  0.33346394    -0.78500
O17         O  0.64480654  0.52678038  0.37651233    -0.78700
C18         C  0.65955557  0.54885094  0.35736123     1.01900
Cr19       Cr  0.71923268  0.49525937  0.35782825     1.93700
Cr20       Cr  0.68615293  0.42288983  0.32916899     1.93200
Cr21       Cr  0.63851225  0.47129541  0.37238565     1.39100
O22         O  0.68153299  0.46309414  0.35271515    -1.23700
O23         O  0.73040544  0.45572339  0.12671090    -0.86000
O24         O  0.77456002  0.51152084  0.14935122    -0.83000
C25         C  0.78999693  0.49161237  0.16975912     0.97500
O26         O  0.81729967  0.47056591  0.16262181    -0.83100
O27         O  0.85860762  0.41992040  0.12902226    -0.85700
C28         C  0.83905557  0.39036991  0.13103350     1.02000
O29         O  0.80723592  0.38898812  0.11845707    -0.78500
O30         O  0.74116148  0.41268090  0.09212238    -0.78700
C31         C  0.72285641  0.42415313  0.11511654     1.01900
O32         O  0.74063537  0.48444299  0.06524441    -0.86000
O33         O  0.79160029  0.53680254  0.08771263    -0.83100
C34         C  0.82064015  0.54917164  0.10079811     0.97500
O35         O  0.83778889  0.52914176  0.12011973    -0.83100
O36         O  0.87210408  0.47498405  0.08327025    -0.85700
C37         C  0.87378363  0.44596765  0.06663415     1.02000
O38         O  0.84915180  0.42032503  0.06848676    -0.78500
O39         O  0.78393367  0.44861591  0.04420145    -0.78700
C40         C  0.75571106  0.46990488  0.04181321     1.01900
Cr41       Cr  0.76211019  0.49485581  0.10678999     1.93700
Cr42       Cr  0.84317065  0.47320222  0.12238557     1.93200
Cr43       Cr  0.79569747  0.42100418  0.08240607     1.39100
O44         O  0.80043691  0.46318195  0.10342549    -1.23700
O45         O  0.98724953  0.22443277  0.13642817    -0.86000
O46         O  0.95066533  0.26122316  0.18232165    -0.83000
C47         C  0.91584445  0.25807388  0.17580419     0.97500
O48         O  0.89912342  0.22707628  0.17931210    -0.83100
O49         O  0.88770927  0.15083149  0.18478729    -0.85700
C50         C  0.88969701  0.13934442  0.15757823     1.02000
O51         O  0.92005314  0.14277887  0.14289081    -0.78500
O52         O  0.99205337  0.16359096  0.12783491    -0.78700
C53         C  0.99125714  0.19729334  0.11829406     1.01900
O54         O  0.03923364  0.18987750  0.17783940    -0.86000
O55         O  0.99975446  0.22282043  0.22603791    -0.83100
C56         C  0.97303731  0.23192155  0.24359878     0.97500
O57         O  0.93949196  0.22776135  0.23503399    -0.83100
O58         O  0.93728679  0.14974447  0.23543939    -0.85700
C59         C  0.93923667  0.11603899  0.22652726     1.02000
O60         O  0.94570144  0.10851692  0.19869146    -0.78500
O61         O  0.01616686  0.13339696  0.18606605    -0.78700
C62         C  0.04375678  0.15538185  0.18434020     1.01900
Cr63       Cr  0.99200338  0.22175418  0.18106068     1.93700
Cr64       Cr  0.91908837  0.18855362  0.20691017     1.93200
Cr65       Cr  0.96817591  0.14048923  0.16521641     1.39100
O66         O  0.95990701  0.18365638  0.18402834    -1.23700
O67         O  0.94898352  0.21529952  0.43467170    -0.86000
O68         O  0.98277158  0.25227456  0.38739603    -0.83000
C69         C  0.98553325  0.27894948  0.36857933     0.97500
O70         O  0.98543457  0.31292334  0.37739205    -0.83100
O71         O  0.91342267  0.33161507  0.39324906    -0.85700
C72         C  0.88350825  0.33525157  0.40839966     1.02000
O73         O  0.88249386  0.32460052  0.43594736    -0.78500
O74         O  0.89635271  0.24783708  0.43167302    -0.78700
C75         C  0.91393704  0.21714152  0.42873679     1.01900
O76         O  0.99796319  0.25630950  0.47650700    -0.86000
O77         O  0.03502754  0.28962426  0.42728299    -0.83100
C78         C  0.03885223  0.32441142  0.43300008     0.97500
O79         O  0.01074792  0.34581795  0.43424858    -0.83100
O80         O  0.93994560  0.36885193  0.44836108    -0.85700
C81         C  0.93613187  0.36153349  0.47664136     1.02000
O82         O  0.93352811  0.32785694  0.48575259    -0.78500
O83         O  0.93808112  0.24996180  0.48672206    -0.78700
C84         C  0.97203852  0.24606245  0.49442699     1.01900
Cr85       Cr  0.98886059  0.25628196  0.43181322     1.93700
Cr86       Cr  0.96207752  0.33641045  0.41474070     1.93200
Cr87       Cr  0.91560910  0.28792703  0.45822950     1.39100
O88         O  0.95574441  0.29351587  0.43466753    -1.23700
O89         O  0.76083474  0.02576369  0.10630260    -0.86000
O90         O  0.72337794  0.99496505  0.15439999    -0.83000
C91         C  0.69693429  0.99225680  0.17351312     0.97500
O92         O  0.66280920  0.99369989  0.16499867    -0.83100
O93         O  0.64484787  0.06594356  0.14701220    -0.85700
C94         C  0.64213373  0.09523897  0.13094349     1.02000
O95         O  0.65338276  0.09476602  0.10355799    -0.78500
O96         O  0.72928373  0.07904087  0.10899400    -0.78700
C97         C  0.75926542  0.06064561  0.11272615     1.01900
O98         O  0.71806255  0.97607874  0.06599391    -0.86000
O99         O  0.68520589  0.94197610  0.11606454    -0.83100
C100        C  0.65070136  0.93861706  0.10959734     0.97500
O101        O  0.62958532  0.96692354  0.10836265    -0.83100
O102        O  0.60818561  0.03730299  0.09266204    -0.85700
C103        C  0.61591876  0.04035775  0.06436233     1.02000
O104        O  0.64967215  0.04177951  0.05536526    -0.78500
O105        O  0.72701937  0.03522843  0.05469308    -0.78700
C106        C  0.72850158  0.00095072  0.04733153     1.01900
Cr107      Cr  0.71910009  0.98711023  0.11031301     1.93700
Cr108      Cr  0.63966042  0.01613772  0.12696494     1.93200
Cr109      Cr  0.68945442  0.05986133  0.08249367     1.39100
O110        O  0.68269125  0.02089789  0.10694551    -1.23700
O111        O  0.75077906  0.98774498  0.40608942    -0.86000
O112        O  0.71318428  0.02154310  0.35920364    -0.83000
C113        C  0.71512856  0.05658750  0.36521041     0.97500
O114        O  0.74600540  0.07382495  0.36247945    -0.83100
O115        O  0.82202151  0.08795987  0.35723358    -0.85700
C116        C  0.83374668  0.08656516  0.38434200     1.02000
O117        O  0.83244344  0.05601338  0.39887981    -0.78500
O118        O  0.81162618  0.98422423  0.41489190    -0.78700
C119        C  0.77779202  0.98496149  0.42444127     1.01900
O120        O  0.78722865  0.93502516  0.36559967    -0.86000
O121        O  0.75397145  0.97253524  0.31650908    -0.83100
C122        C  0.74442700  0.99871528  0.29867780     0.97500
O123        O  0.74750848  0.03253054  0.30697594    -0.83100
O124        O  0.82510060  0.03745591  0.30698628    -0.85700
C125        C  0.85890476  0.03575483  0.31554248     1.02000
O126        O  0.86670629  0.02957577  0.34331722    -0.78500
O127        O  0.84313105  0.95900302  0.35678057    -0.78700
C128        C  0.82178358  0.93098945  0.35882228     1.01900
Cr129      Cr  0.75416643  0.98151069  0.36147477     1.93700
Cr130      Cr  0.78559258  0.05479803  0.33522159     1.93200
Cr131      Cr  0.83495542  0.00740886  0.37712193     1.39100
O132        O  0.79156352  0.01450894  0.35832676    -1.23700
O133        O  0.52386963  0.26241269  0.43429858    -0.86000
O134        O  0.48543844  0.22628442  0.39074534    -0.83000
C135        C  0.48265988  0.20063762  0.37121031     0.97500
O136        O  0.48361869  0.16621224  0.37923139    -0.83100
O137        O  0.55552755  0.14424162  0.39344014    -0.85700
C138        C  0.58621198  0.14169130  0.40748611     1.02000
O139        O  0.58809027  0.15250664  0.43478428    -0.78500
O140        O  0.57561034  0.22902877  0.42905859    -0.78700
C141        C  0.55808448  0.25966585  0.42555075     1.01900
O142        O  0.47731810  0.22341612  0.48050830    -0.86000
O143        O  0.43569192  0.19066868  0.43450938    -0.83100
C144        C  0.43165333  0.15587581  0.44003655     0.97500
O145        O  0.45897205  0.13359412  0.43771252    -0.83100
O146        O  0.52952458  0.10953344  0.44994454    -0.85700
C147        C  0.53567570  0.11735239  0.47781819     1.02000
O148        O  0.53965262  0.15109585  0.48628813    -0.78500
O149        O  0.53765652  0.22906367  0.48621886    -0.78700
C150        C  0.50476927  0.23331271  0.49663018     1.01900
Cr151      Cr  0.48286289  0.22261180  0.43521290     1.93700
Cr152      Cr  0.50722378  0.14189359  0.41647242     1.93200
Cr153      Cr  0.55698439  0.19003332  0.45742228     1.39100
O154        O  0.51540898  0.18476830  0.43601045    -1.23700
O155        O  0.47796329  0.27867500  0.13905838    -0.86000
O156        O  0.52972772  0.23201513  0.16504598    -0.83000
C157        C  0.55941773  0.22287434  0.17888928     0.97500
O158        O  0.56983303  0.24088764  0.20228530    -0.83100
O159        O  0.59934506  0.30810442  0.18101237    -0.85700
C160        C  0.59983701  0.33996199  0.16823110     1.02000
O161        O  0.57028796  0.35944134  0.16650742    -0.78500
O162        O  0.52226158  0.31952828  0.12886467    -0.78700
C163        C  0.49988380  0.29424301  0.11991747     1.01900
O164        O  0.44757409  0.29517782  0.19909660    -0.86000
O165        O  0.49479255  0.24020586  0.22375068    -0.83100
C166        C  0.50592782  0.25458608  0.24842125     0.97500
O167        O  0.52778775  0.28247818  0.24799439    -0.83100
O168        O  0.56037223  0.34791658  0.22874137    -0.85700
C169        C  0.53561988  0.37354723  0.22785669     1.02000
O170        O  0.51022399  0.37359567  0.20775387    -0.78500
O171        O  0.46007502  0.34112067  0.16705468    -0.78700
C172        C  0.43794750  0.32514257  0.18567568     1.01900
Cr173      Cr  0.48991236  0.26443322  0.18235565     1.93700
Cr174      Cr  0.56125461  0.29519289  0.21308051     1.93200
Cr175      Cr  0.51609159  0.34495395  0.16894485     1.39100
O176        O  0.52255421  0.30157970  0.18834655    -1.23700
O177        O  0.25815985  0.95051595  0.18798481    -0.86000
O178        O  0.22276836  0.98292240  0.14039685    -0.83000
C179        C  0.19742356  0.98426469  0.12047570     0.97500
O180        O  0.16297882  0.98505904  0.12829948    -0.83100
O181        O  0.14136115  0.91463549  0.14707975    -0.85700
C182        C  0.13716765  0.88537008  0.16293147     1.02000
O183        O  0.14776015  0.88556492  0.19037253    -0.78500
O184        O  0.22495336  0.89838516  0.18487878    -0.78700
C185        C  0.25580419  0.91569050  0.18147325     1.01900
O186        O  0.21721960  0.00150547  0.22910549    -0.86000
O187        O  0.18639859  0.03768705  0.17883948    -0.83100
C188        C  0.15154442  0.04243523  0.18360503     0.97500
O189        O  0.12920166  0.01502670  0.18394770    -0.83100
O190        O  0.10483638  0.94582821  0.20078866    -0.85700
C191        C  0.11150664  0.94165799  0.22906915     1.02000
O192        O  0.14489517  0.93863609  0.23858633    -0.78500
O193        O  0.22282170  0.94183776  0.23964539    -0.78700
C194        C  0.22656970  0.97583006  0.24742894     1.01900
Cr195      Cr  0.21807735  0.99092183  0.18441320     1.93700
Cr196      Cr  0.13798430  0.96488177  0.16653611     1.93200
Cr197      Cr  0.18486102  0.91911688  0.21148335     1.39100
O198        O  0.18016480  0.95862903  0.18726124    -1.23700
O199        O  0.27316607  0.01366669  0.38779304    -0.86000
O200        O  0.22812805  0.95790314  0.41004524    -0.83000
C201        C  0.22035736  0.92605160  0.42114657     0.97500
O202        O  0.23881907  0.91369591  0.44359182    -0.83100
O203        O  0.30687524  0.89185169  0.41829250    -0.85700
C204        C  0.33980563  0.89373609  0.40732671     1.02000
O205        O  0.35853727  0.92363680  0.41020108    -0.78500
O206        O  0.31812063  0.97407746  0.37625491    -0.78700
C207        C  0.29043393  0.99387047  0.36811890     1.01900
O208        O  0.28743579  0.03876616  0.45026610    -0.86000
O209        O  0.23610748  0.98572866  0.47153611    -0.83100
C210        C  0.25113432  0.97127100  0.49490257     0.97500
O211        O  0.27879372  0.94928487  0.49235220    -0.83100
O212        O  0.34515446  0.92225703  0.46980318    -0.85700
C213        C  0.36988753  0.94759594  0.47267965     1.02000
O214        O  0.36853437  0.97760290  0.45700084    -0.78500
O215        O  0.33534790  0.03209282  0.41905187    -0.78700
C216        C  0.31763946  0.05115282  0.43867573     1.01900
Cr217      Cr  0.25914122  0.99680989  0.43034807     1.93700
Cr218      Cr  0.29263437  0.92264688  0.45445836     1.93200
Cr219      Cr  0.34168064  0.97644764  0.41690968     1.39100
O220        O  0.29780327  0.96543429  0.43426625    -1.23700
O221        O  0.45288005  0.76271568  0.35842532    -0.86000
O222        O  0.48657171  0.72296921  0.40417949    -0.83000
C223        C  0.48957177  0.69502311  0.42179300     0.97500
O224        O  0.49007821  0.66175345  0.41142656    -0.83100
O225        O  0.41837987  0.64163643  0.39429741    -0.85700
C226        C  0.38811495  0.64047582  0.37949667     1.02000
O227        O  0.38699738  0.65387487  0.35278385    -0.78500
O228        O  0.40042645  0.72987696  0.36007182    -0.78700
C229        C  0.41771865  0.76041431  0.36418906     1.01900
O230        O  0.50282825  0.72518729  0.31449463    -0.86000
O231        O  0.53978886  0.68980182  0.36267773    -0.83100
C232        C  0.54454654  0.65567461  0.35530456     0.97500
O233        O  0.51695034  0.63383035  0.35286892    -0.83100
O234        O  0.44676813  0.61078280  0.33855768    -0.85700
C235        C  0.44185602  0.61978845  0.31092098     1.02000
O236        O  0.43932148  0.65388103  0.30302651    -0.78500
O237        O  0.44302742  0.73162267  0.30482716    -0.78700
C238        C  0.47696793  0.73538209  0.29668876     1.01900
Cr239      Cr  0.49317133  0.72231171  0.35947681     1.93700
Cr240      Cr  0.46774839  0.64066020  0.37301680     1.93200
Cr241      Cr  0.42060327  0.69177225  0.33201709     1.39100
O242        O  0.46053059  0.68492212  0.35527826    -1.23700
O243        O  0.48423961  0.75627906  0.15235265    -0.86000
O244        O  0.45078123  0.71882197  0.10548783    -0.83000
C245        C  0.41577317  0.72128258  0.11172752     0.97500
O246        O  0.39872401  0.75219489  0.10873312    -0.83100
O247        O  0.38554291  0.82852003  0.10319375    -0.85700
C248        C  0.38625643  0.83920260  0.13067129     1.02000
O249        O  0.41668203  0.83760187  0.14514959    -0.78500
O250        O  0.48812175  0.81697683  0.16150338    -0.78700
C251        C  0.48808793  0.78302893  0.17086211     1.01900
O252        O  0.53783706  0.79166763  0.11200999    -0.86000
O253        O  0.50093005  0.75862638  0.06290776    -0.83100
C254        C  0.47501575  0.74938463  0.04488296     0.97500
O255        O  0.44106127  0.75272988  0.05316370    -0.83100
O256        O  0.43705123  0.83017388  0.05286404    -0.85700
C257        C  0.44044531  0.86411248  0.06079532     1.02000
O258        O  0.44459149  0.87238154  0.08885713    -0.78500
O259        O  0.51445281  0.84777759  0.10329993    -0.78700
C260        C  0.54221001  0.82607564  0.10516360     1.01900
Cr261      Cr  0.49113237  0.75926326  0.10780020     1.93700
Cr262      Cr  0.41862313  0.79132505  0.08129168     1.93200
Cr263      Cr  0.46562410  0.84029827  0.12337591     1.39100
O264        O  0.45861077  0.79696708  0.10449096    -1.23700
O265        O  0.96459296  0.70437680  0.15311616    -0.86000
O266        O  0.02112535  0.74888212  0.13105356    -0.83000
C267        C  0.05246490  0.75683939  0.11896504     0.97500
O268        O  0.06474898  0.73807900  0.09651910    -0.83100
O269        O  0.08724638  0.67019894  0.12177030    -0.85700
C270        C  0.08536372  0.63771750  0.13342955     1.02000
O271        O  0.05505787  0.61932894  0.13197430    -0.78500
O272        O  0.00479571  0.66092773  0.16626723    -0.78700
C273        C  0.98453592  0.68886019  0.17340432     1.01900
O274        O  0.94029086  0.68939343  0.09102218    -0.86000
O275        O  0.99336119  0.74063914  0.06967796    -0.83100
C276        C  0.00775829  0.72583619  0.04611940     0.97500
O277        O  0.02863475  0.69730302  0.04820816    -0.83100
O278        O  0.05574247  0.63103227  0.07123595    -0.85700
C279        C  0.02996349  0.60664751  0.06915222     1.02000
O280        O  0.00080605  0.60807306  0.08596413    -0.78500
O281        O  0.94655715  0.64250096  0.12319339    -0.78700
C282        C  0.92740216  0.66001730  0.10354617     1.01900
Cr283      Cr  0.98207235  0.71789766  0.11080331     1.93700
Cr284      Cr  0.05573661  0.68389339  0.08609108     1.93200
Cr285      Cr  0.00229160  0.63604762  0.12556162     1.39100
O286        O  0.01332234  0.67920586  0.10712798    -1.23700
O287        O  0.02486802  0.72458592  0.37581451    -0.86000
O288        O  0.97599836  0.77177356  0.40469359    -0.83000
C289        C  0.99906637  0.78617506  0.42332931     0.97500
O290        O  0.02032305  0.81290064  0.41510347    -0.83100
O291        O  0.06580101  0.85654550  0.37736462    -0.85700
C292        C  0.09570789  0.83771198  0.37655577     1.02000
O293        O  0.09581297  0.80508743  0.36542041    -0.78500
O294        O  0.06997496  0.73812272  0.34279780    -0.78700
C295        C  0.05632386  0.71743580  0.36364383     1.01900
O296        O  0.99145822  0.73880639  0.31808130    -0.86000
O297        O  0.94460955  0.79259940  0.34520419    -0.83100
C298        C  0.93430030  0.82077615  0.36063795     0.97500
O299        O  0.95645443  0.83495131  0.37980966    -0.83100
O300        O  0.00560822  0.86872535  0.33761277    -0.85700
C301        C  0.03210351  0.86989282  0.31814545     1.02000
O302        O  0.05763284  0.84494360  0.31721665    -0.78500
O303        O  0.03002164  0.77853218  0.29560122    -0.78700
C304        C  0.00677051  0.75179630  0.29415527     1.01900
Cr305      Cr  0.98654986  0.75998075  0.36041670     1.93700
Cr306      Cr  0.01240410  0.83976561  0.37602717     1.93200
Cr307      Cr  0.06007030  0.79194606  0.33212106     1.39100
O308        O  0.01978990  0.79701045  0.35580833    -1.23700
O309        O  0.21623309  0.52306632  0.18480813    -0.86000
O310        O  0.25297739  0.48820310  0.13802713    -0.83000
C311        C  0.27931212  0.48580106  0.11872481     0.97500
O312        O  0.31340289  0.48790435  0.12684511    -0.83100
O313        O  0.33064491  0.56138794  0.14107509    -0.85700
C314        C  0.33278536  0.59178219  0.15573199     1.02000
O315        O  0.32253127  0.59270586  0.18334906    -0.78500
O316        O  0.24692145  0.57656070  0.18103566    -0.78700
C317        C  0.21687717  0.55799228  0.17820679     1.01900
O318        O  0.25844742  0.47662337  0.22803031    -0.86000
O319        O  0.29236083  0.43906195  0.17960567    -0.83100
C320        C  0.32739355  0.43667991  0.18460097     0.97500
O321        O  0.34810143  0.46529847  0.18370218    -0.83100
O322        O  0.36895410  0.53673643  0.19506546    -0.85700
C323        C  0.36261031  0.54188672  0.22320411     1.02000
O324        O  0.32936073  0.54256345  0.23361350    -0.78500
O325        O  0.25137491  0.53646870  0.23687168    -0.78700
C326        C  0.24857096  0.50279985  0.24573195     1.01900
Cr327      Cr  0.25785291  0.48420370  0.18281017     1.93700
Cr328      Cr  0.33672475  0.51298672  0.16316808     1.93200
Cr329      Cr  0.28799376  0.55884145  0.20696938     1.39100
O330        O  0.29412787  0.51849513  0.18396614    -1.23700
O331        O  0.22234920  0.49168755  0.38897127    -0.86000
O332        O  0.25984896  0.52492452  0.43526354    -0.83000
C333        C  0.25828042  0.55960611  0.42785457     0.97500
O334        O  0.22797098  0.57768862  0.43148668    -0.83100
O335        O  0.15192348  0.59313215  0.43783872    -0.85700
C336        C  0.13997428  0.59154954  0.41083540     1.02000
O337        O  0.14148716  0.56118737  0.39633290    -0.78500
O338        O  0.16152887  0.49044191  0.37949621    -0.78700
C339        C  0.19559731  0.49015110  0.37035225     1.01900
O340        O  0.18531769  0.43926886  0.42911393    -0.86000
O341        O  0.21813790  0.47651380  0.47824592    -0.83100
C342        C  0.22839474  0.50236782  0.49599196     0.97500
O343        O  0.22628851  0.53627522  0.48750460    -0.83100
O344        O  0.14867566  0.54259137  0.48837253    -0.85700
C345        C  0.11475323  0.53906206  0.48031210     1.02000
O346        O  0.10657716  0.53398868  0.45236855    -0.78500
O347        O  0.12940376  0.46345773  0.43721112    -0.78700
C348        C  0.15061887  0.43532307  0.43521150     1.01900
Cr349      Cr  0.21850448  0.48547898  0.43339590     1.93700
Cr350      Cr  0.18828664  0.55932087  0.45950021     1.93200
Cr351      Cr  0.13817739  0.51251457  0.41775248     1.39100
O352        O  0.18154131  0.51894586  0.43658696    -1.23700
C353        C  0.20284547  0.51835084  0.28705158    -0.27000
C354        C  0.23235989  0.49522909  0.27652545    -0.15000
C355        C  0.24757616  0.46806998  0.29663657     0.35600
C356        C  0.23410552  0.46570143  0.32681002    -0.26400
C357        C  0.20499634  0.48926478  0.33735382    -0.15700
C358        C  0.18901350  0.51547151  0.31709553     0.36700
N359        N  0.16024688  0.54074854  0.32746691    -0.89900
H360        H  0.19095065  0.53946393  0.27203111     0.17800
H361        H  0.24705279  0.44585604  0.34236761     0.17800
N362        N  0.27790611  0.44388337  0.28759650    -0.88900
H363        H  0.13669240  0.53721956  0.31357171     0.35200
H364        H  0.17003895  0.56829506  0.32457502     0.40300
H365        H  0.30044636  0.46054462  0.28014564     0.39900
H366        H  0.26886480  0.42719381  0.26944039     0.34800
C367        C  0.28700594  0.50945130  0.06612409    -0.27000
C368        C  0.27006273  0.48323609  0.08585312    -0.15000
C369        C  0.24187939  0.45886217  0.07425027     0.35600
C370        C  0.22942140  0.46360988  0.04400395    -0.26400
C371        C  0.24459887  0.49182455  0.02507826    -0.15700
C372        C  0.27447982  0.51405404  0.03607956     0.36700
N373        N  0.29196023  0.54178911  0.01686299    -0.89900
H374        H  0.30884526  0.52798191  0.07455125     0.17800
H375        H  0.20682791  0.44598963  0.03563259     0.17800
N376        N  0.22527478  0.42925153  0.09232423    -0.88900
H377        H  0.32070090  0.53559923  0.01540060     0.35200
H378        H  0.28905783  0.56801986  0.02738454     0.40300
H379        H  0.23845840  0.42664823  0.11340845     0.39900
H380        H  0.23049508  0.40383735  0.08101347     0.34800
C381        C  0.08357802  0.61836132  0.38672930    -0.27000
C382        C  0.12025642  0.62396628  0.39744588    -0.15000
C383        C  0.13633518  0.66024524  0.39639012     0.35600
C384        C  0.11526800  0.69023071  0.38419773    -0.26400
C385        C  0.07807984  0.68474635  0.37439511    -0.15700
C386        C  0.06214009  0.64838272  0.37582209     0.36700
N387        N  0.02448445  0.64100454  0.36597594    -0.89900
H388        H  0.07103407  0.59054684  0.38775516     0.17800
H389        H  0.12741833  0.71821381  0.38321478     0.17800
N390        N  0.17407916  0.66629657  0.40699146    -0.88900
H391        H  0.02187968  0.65003774  0.34353308     0.35200
H392        H  0.00572346  0.65645492  0.37972178     0.40300
H393        H  0.17403636  0.66222359  0.43061113     0.39900
H394        H  0.18218208  0.69428709  0.40333519     0.34800
C395        C  0.18513897  0.61655094  0.16031493    -0.27000
C396        C  0.18233668  0.57803449  0.16795167    -0.15000
C397        C  0.14682778  0.56019497  0.16537815     0.35600
C398        C  0.11588798  0.58074433  0.15513002    -0.26400
C399        C  0.11883762  0.61900623  0.14694104    -0.15700
C400        C  0.15392604  0.63722294  0.15001159     0.36700
N401        N  0.15803498  0.67642599  0.14243195    -0.89900
H402        H  0.21196449  0.63084277  0.16223574     0.17800
H403        H  0.08929786  0.56605050  0.15295927     0.17800
N404        N  0.14094725  0.52126202  0.17260661    -0.88900
H405        H  0.18599284  0.68512053  0.14503675     0.35200
H406        H  0.14212057  0.69177329  0.15820726     0.40300
H407        H  0.14787085  0.51664323  0.19546627     0.39900
H408        H  0.15802182  0.50480683  0.15840777     0.34800
C409        C  0.05116490  0.56505860  0.99360730    -0.27000
C410        C  0.08458290  0.54493897  0.50348227    -0.15000
C411        C  0.08705772  0.53268519  0.03255982     0.35600
C412        C  0.06428593  0.54936966  0.05510314    -0.26400
C413        C  0.03692862  0.57614059  0.04723061    -0.15700
C414        C  0.02893710  0.58231775  0.01622495     0.36700
N415        N  0.00090872  0.60922286  0.00770704    -0.89900
H416        H  0.04815506  0.57420866  0.47207020     0.17800
H417        H  0.07088598  0.54462576  0.07893868     0.17800
N418        N  0.11653259  0.50734132  0.04119908    -0.88900
H419        H  0.98133774  0.59562315  0.99383632     0.35200
H420        H  0.01403009  0.63021901  0.99465927     0.40300
H421        H  0.10430309  0.48471001  0.05291858     0.39900
H422        H  0.13440047  0.52137597  0.05625776     0.34800
C423        C  0.98705019  0.75812305  0.23992437    -0.27000
C424        C  0.99810632  0.73480935  0.26407443    -0.15000
C425        C  0.00190380  0.69575035  0.25898579     0.35600
C426        C  0.99597493  0.68106609  0.22950738    -0.26400
C427        C  0.98535022  0.70443131  0.20507178    -0.15700
C428        C  0.97963163  0.74335113  0.21074953     0.36700
N429        N  0.96784157  0.76817605  0.18666962    -0.89900
H430        H  0.98392445  0.78806019  0.24394621     0.17800
H431        H  0.00032104  0.65129420  0.22547507     0.17800
N432        N  0.01298096  0.67131924  0.28353302    -0.88900
H433        H  0.96762582  0.79612284  0.19410143     0.35200
H434        H  0.93989871  0.76148512  0.18161224     0.40300
H435        H  0.04029628  0.67884664  0.28986488     0.39900
H436        H  0.01428442  0.64337644  0.27615378     0.34800
C437        C  0.02557225  0.77319750  0.00727496    -0.27000
C438        C  0.00201723  0.74353005  0.01604415    -0.15000
C439        C  0.97276915  0.75983277  0.50456527     0.35600
C440        C  0.97182713  0.77557239  0.47498242    -0.26400
C441        C  0.00188869  0.77060377  0.45443498    -0.15700
C442        C  0.03340802  0.74892093  0.46340471     0.36700
N443        N  0.06491677  0.74152433  0.44345727    -0.89900
H444        H  0.04703994  0.78301627  0.02284707     0.17800
H445        H  0.94752593  0.79174291  0.46785751     0.17800
N446        N  0.94904168  0.70103478  0.00512051    -0.88900
H447        H  0.08897408  0.75255072  0.45373680     0.35200
H448        H  0.06243558  0.75517645  0.42250265     0.40300
H449        H  0.96517037  0.67675350  0.00855451     0.39900
H450        H  0.92078497  0.78177399  0.51508517     0.34800
C451        C  0.36390647  0.69277922  0.14225661    -0.27000
C452        C  0.39406955  0.68784560  0.12177314    -0.15000
C453        C  0.40217254  0.65142978  0.11083864     0.35600
C454        C  0.38045072  0.62065417  0.12085251    -0.26400
C455        C  0.35108271  0.62542370  0.14214432    -0.15700
C456        C  0.34272770  0.66199790  0.15276731     0.36700
N457        N  0.31279214  0.66806876  0.17429763    -0.89900
H458        H  0.35718452  0.72065228  0.15072401     0.17800
H459        H  0.38753217  0.59272375  0.11274683     0.17800
N460        N  0.43211993  0.64559240  0.08930969    -0.88900
H461        H  0.29362124  0.68688550  0.16461100     0.35200
H462        H  0.32417186  0.68076827  0.19368188     0.40300
H463        H  0.42073777  0.63337905  0.06974193     0.39900
H464        H  0.45109372  0.62643303  0.09882253     0.34800
C465        C  0.28693287  0.61260683  0.39818284    -0.27000
C466        C  0.29208497  0.57968025  0.41562952    -0.15000
C467        C  0.32922081  0.56688847  0.42096644     0.35600
C468        C  0.36000469  0.58780267  0.40958566    -0.26400
C469        C  0.35470978  0.62072698  0.39234440    -0.15700
C470        C  0.31772305  0.63279330  0.38621680     0.36700
N471        N  0.31123432  0.66582657  0.36818191    -0.89900
H472        H  0.25873924  0.62262505  0.39343268     0.17800
H473        H  0.38838335  0.57792382  0.41372526     0.17800
N474        N  0.33573628  0.53287582  0.43796048    -0.88900
H475        H  0.29545323  0.68473689  0.38131232     0.35200
H476        H  0.29502462  0.65811062  0.34936916     0.40300
H477        H  0.32681743  0.53766972  0.46039988     0.39900
H478        H  0.36449747  0.52688523  0.43898335     0.34800
C479        C  0.43974019  0.59911467  0.25738794    -0.27000
C480        C  0.43365605  0.59066167  0.28827011    -0.15000
C481        C  0.41207373  0.55879500  0.29641724     0.35600
C482        C  0.39193228  0.53990060  0.27385624    -0.26400
C483        C  0.39351570  0.55218984  0.24347922    -0.15700
C484        C  0.41984596  0.58025034  0.23483801     0.36700
N485        N  0.42425841  0.59287027  0.20392411    -0.89900
H486        H  0.45718581  0.62293890  0.25092593     0.17800
H487        H  0.37255076  0.51769550  0.28048216     0.17800
N488        N  0.40759567  0.54775950  0.32772405    -0.88900
H489        H  0.39852914  0.60329759  0.19621754     0.35200
H490        H  0.43240291  0.56999269  0.19044336     0.40300
H491        H  0.41612546  0.51970263  0.32976682     0.39900
H492        H  0.37899033  0.54925367  0.33341616     0.34800
C493        C  0.47007118  0.79552226  0.22507272    -0.27000
C494        C  0.49100078  0.77411979  0.20404164    -0.15000
C495        C  0.51133089  0.74241306  0.21495381     0.35600
C496        C  0.50869707  0.73190150  0.24582263    -0.26400
C497        C  0.48534914  0.75159167  0.26614468    -0.15700
C498        C  0.46672222  0.78425659  0.25581383     0.36700
N499        N  0.44400301  0.80583372  0.27649039    -0.89900
H500        H  0.45455952  0.81997541  0.21730856     0.17800
H501        H  0.52328684  0.70686122  0.25354927     0.17800
N502        N  0.53488515  0.72027029  0.19531090    -0.88900
H503        H  0.41666093  0.80696131  0.26785649     0.35200
H504        H  0.45464919  0.83328195  0.27695246     0.40300
H505        H  0.55398466  0.73815782  0.18426286     0.39900
H506        H  0.51821063  0.70693301  0.17902594     0.34800
C507        C  0.51392113  0.73184048  0.46561745    -0.27000
C508        C  0.49166188  0.70190730  0.45504873    -0.15000
C509        C  0.46807149  0.68255715  0.47598746     0.35600
C510        C  0.46464529  0.69561467  0.50593448    -0.26400
C511        C  0.48328170  0.73334496  0.01438874    -0.15700
C512        C  0.50697327  0.75183231  0.99317410     0.36700
N513        N  0.52673444  0.78542830  0.00184999    -0.89900
H514        H  0.53243518  0.74641077  0.44975709     0.17800
H515        H  0.44483387  0.68189904  0.52128501     0.17800
N516        N  0.44532221  0.65122102  0.46710223    -0.88900
H517        H  0.54133519  0.79673820  0.98316322     0.35200
H518        H  0.54705814  0.77776872  0.01785224     0.40300
H519        H  0.46291883  0.62989137  0.45889249     0.39900
H520        H  0.42733131  0.65998364  0.44973709     0.34800
C521        C  0.17694823  0.87078157  0.42502438    -0.27000
C522        C  0.18929609  0.90267393  0.40841758    -0.15000
C523        C  0.17213222  0.91052847  0.37989045     0.35600
C524        C  0.14330671  0.88723845  0.36931083    -0.26400
C525        C  0.13054538  0.85632824  0.38638560    -0.15700
C526        C  0.14764021  0.84793462  0.41444544     0.36700
N527        N  0.13480776  0.81729613  0.43310902    -0.89900
H528        H  0.18947282  0.86394072  0.44682927     0.17800
H529        H  0.13004414  0.89388513  0.34775179     0.17800
N530        N  0.18298967  0.94177095  0.36103101    -0.88900
H531        H  0.13719723  0.79247755  0.42042452     0.35200
H532        H  0.10636591  0.82160997  0.43825853     0.40300
H533        H  0.21167258  0.93957307  0.35583932     0.39900
H534        H  0.17777242  0.96679108  0.37282998     0.34800
C535        C  0.34194785  0.82454103  0.39777085    -0.27000
C536        C  0.35822378  0.86020204  0.39354428    -0.15000
C537        C  0.39369348  0.86272797  0.37867712     0.35600
C538        C  0.41231442  0.82993983  0.36926089    -0.26400
C539        C  0.39653668  0.79425076  0.37427151    -0.15700
C540        C  0.36079587  0.79169712  0.38856996     0.36700
N541        N  0.34394736  0.75582280  0.39479322    -0.89900
H542        H  0.31499486  0.82186866  0.40931851     0.17800
H543        H  0.43943399  0.83258017  0.35795442     0.17800
N544        N  0.41126021  0.89845714  0.37318619    -0.88900
H545        H  0.31769018  0.75509085  0.38414508     0.35200
H546        H  0.33950810  0.75360148  0.41834787     0.40300
H547        H  0.41593290  0.90126249  0.34965237     0.39900
H548        H  0.43738503  0.89847354  0.38398405     0.34800
C549        C  0.42235770  0.90621868  0.48431856    -0.27000
C550        C  0.40148542  0.93803585  0.49284116    -0.15000
C551        C  0.40257717  0.95196458  0.02268147     0.35600
C552        C  0.41915686  0.92871452  0.04512978    -0.26400
C553        C  0.43521817  0.89382361  0.03715231    -0.15700
C554        C  0.43996649  0.88525607  0.00589067     0.36700
N555        N  0.45932201  0.85175945  0.99655677    -0.89900
H556        H  0.42367749  0.89805436  0.46048848     0.17800
H557        H  0.41645195  0.93624461  0.06899508     0.17800
N558        N  0.38382499  0.98621017  0.03107882    -0.88900
H559        H  0.47914801  0.85598467  0.48359681     0.35200
H560        H  0.44062176  0.83511669  0.98411346     0.40300
H561        H  0.39780315  0.00836153  0.02005889     0.39900
H562        H  0.38634527  0.99097163  0.05452763     0.34800
C563        C  0.10043893  0.82647652  0.17175381    -0.27000
C564        C  0.11712361  0.85172820  0.15077441    -0.15000
C565        C  0.11299190  0.84460173  0.11912610     0.35600
C566        C  0.09243407  0.81319869  0.10944235    -0.26400
C567        C  0.07478736  0.78895620  0.13044064    -0.15700
C568        C  0.07920980  0.79537140  0.16196299     0.36700
N569        N  0.06260094  0.77002950  0.18389264    -0.89900
H570        H  0.10345327  0.83127345  0.19603010     0.17800
H571        H  0.08946467  0.80819569  0.08517310     0.17800
N572        N  0.12953206  0.86831240  0.09618481    -0.88900
H573        H  0.06822291  0.77885222  0.20616034     0.35200
H574        H  0.07553565  0.74377887  0.18123950     0.40300
H575        H  0.15847816  0.87037349  0.10020390     0.39900
H576        H  0.11734889  0.89498925  0.09750572     0.34800
C577        C  0.02862892  0.89437377  0.26619783    -0.27000
C578        C  0.03660893  0.90137255  0.29689305    -0.15000
C579        C  0.06242274  0.92987173  0.30452356     0.35600
C580        C  0.08452403  0.94630546  0.28135008    -0.26400
C581        C  0.08030450  0.93515199  0.25083670    -0.15700
C582        C  0.05021580  0.91118635  0.24300907     0.36700
N583        N  0.04415142  0.90053675  0.21190645    -0.89900
H584        H  0.00891932  0.87227781  0.26030237     0.17800
H585        H  0.10708625  0.96541584  0.28734887     0.17800
N586        N  0.06894620  0.93874477  0.33604107    -0.88900
H587        H  0.01648111  0.90757389  0.20627857     0.35200
H588        H  0.04682481  0.87129711  0.21032629     0.40300
H589        H  0.04402837  0.95018221  0.34485396     0.39900
H590        H  0.08958194  0.95960156  0.33792370     0.34800
C591        C  0.19852334  0.97830788  0.03291990    -0.27000
C592        C  0.23750250  0.97654088  0.02718015    -0.15000
C593        C  0.26247042  0.97966201  0.05202822     0.35600
C594        C  0.24840932  0.98386954  0.08152982    -0.26400
C595        C  0.20952515  0.98406017  0.08778010    -0.15700
C596        C  0.18431867  0.98149863  0.06299948     0.36700
N597        N  0.14447123  0.98119515  0.06815621    -0.89900
H598        H  0.17898396  0.97576146  0.01414112     0.17800
H599        H  0.26860699  0.98600240  0.09987795     0.17800
N600        N  0.30250744  0.97934459  0.04812190    -0.88900
H601        H  0.13371023  0.95611447  0.05930589     0.35200
H602        H  0.13274869  0.00355585  0.05591005     0.40300
H603        H  0.30978192  0.99971838  0.03190173     0.39900
H604        H  0.31101014  0.95275923  0.04053202     0.34800
C605        C  0.27391313  0.96079004  0.28664333    -0.27000
C606        C  0.24447639  0.98424414  0.27716294    -0.15000
C607        C  0.23179590  0.01291354  0.29706785     0.35600
C608        C  0.24800265  0.01662720  0.32612064    -0.26400
C609        C  0.27710041  0.99249977  0.33586560    -0.15700
C610        C  0.29042047  0.96468844  0.31539072     0.36700
N611        N  0.31996157  0.93932883  0.32386275    -0.89900
H612        H  0.28398537  0.93866631  0.27171516     0.17800
H613        H  0.23704536  0.03795713  0.34142263     0.17800
N614        N  0.20141307  0.03740519  0.28905125    -0.88900
H615        H  0.34187699  0.94207355  0.30795689     0.35200
H616        H  0.30959176  0.91182029  0.32260808     0.40300
H617        H  0.17796018  0.02090224  0.28388124     0.39900
H618        H  0.20929938  0.05270527  0.26960127     0.34800
C619        C  0.28473108  0.86971158  0.14566240    -0.27000
C620        C  0.28927615  0.89502984  0.16992011    -0.15000
C621        C  0.32551203  0.89980883  0.18253352     0.35600
C622        C  0.35627400  0.88028535  0.17015503    -0.26400
C623        C  0.35210506  0.85611680  0.14502312    -0.15700
C624        C  0.31563131  0.85018437  0.13308294     0.36700
N625        N  0.30997886  0.82435955  0.10830056    -0.89900
H626        H  0.25694263  0.86558607  0.13614578     0.17800
H627        H  0.38386961  0.88486043  0.17988396     0.17800
N628        N  0.33184493  0.92347744  0.20841489    -0.88900
H629        H  0.28164487  0.82368708  0.10197546     0.35200
H630        H  0.31655504  0.79739742  0.11627137     0.40300
H631        H  0.31404611  0.91470652  0.22608261     0.39900
H632        H  0.32529671  0.95128376  0.20256147     0.34800
C633        C  0.37509844  0.34449897  0.16758004    -0.27000
C634        C  0.40144898  0.34339044  0.19131528    -0.15000
C635        C  0.39806304  0.36879596  0.21568650     0.35600
C636        C  0.37039832  0.39693381  0.21480440    -0.26400
C637        C  0.34610898  0.40019436  0.18976171    -0.15700
C638        C  0.34733205  0.37279957  0.16652754     0.36700
N639        N  0.32265648  0.37571805  0.14073587    -0.89900
H640        H  0.37837744  0.32541131  0.14847991     0.17800
H641        H  0.36989925  0.41818356  0.23253227     0.17800
N642        N  0.42498935  0.36827624  0.23988578    -0.88900
H643        H  0.32716229  0.35333185  0.12570902     0.35200
H644        H  0.32972880  0.40026813  0.12875929     0.40300
H645        H  0.41034518  0.36512328  0.26051509     0.39900
H646        H  0.43865256  0.39435388  0.24022304     0.34800
C647        C  0.36458082  0.14376567  0.42709099    -0.27000
C648        C  0.39445082  0.13931934  0.44757769    -0.15000
C649        C  0.39143053  0.11198301  0.47089194     0.35600
C650        C  0.36131218  0.08639544  0.47089266    -0.26400
C651        C  0.33449277  0.08732554  0.44761138    -0.15700
C652        C  0.33463205  0.11765643  0.42675822     0.36700
N653        N  0.30629243  0.11959925  0.40356333    -0.89900
H654        H  0.36664535  0.16493388  0.40930506     0.17800
H655        H  0.36142176  0.06313463  0.48697960     0.17800
N656        N  0.42039919  0.10852024  0.49332671    -0.88900
H657        H  0.31065163  0.14313257  0.38960951     0.35200
H658        H  0.28037458  0.12363008  0.41457379     0.40300
H659        H  0.43177737  0.08141378  0.49184300     0.39900
H660        H  0.40792294  0.11134657  0.51488290     0.34800
C661        C  0.52659708  0.27831850  0.03629414    -0.27000
C662        C  0.49883254  0.25268399  0.02697195    -0.15000
C663        C  0.46987418  0.24273502  0.04764084     0.35600
C664        C  0.47028658  0.25755396  0.07749260    -0.26400
C665        C  0.49898117  0.28217612  0.08725097    -0.15700
C666        C  0.52729116  0.29288841  0.06605984     0.36700
N667        N  0.55754523  0.31733792  0.07494332    -0.89900
H668        H  0.54880187  0.28618250  0.02041940     0.17800
H669        H  0.44837608  0.24912606  0.09341795     0.17800
N670        N  0.44137033  0.21618751  0.03891611    -0.88900
H671        H  0.57496324  0.32367470  0.05630432     0.35200
H672        H  0.57419977  0.30230528  0.09034520     0.40300
H673        H  0.42367343  0.24955131  0.51388605     0.39900
H674        H  0.42347750  0.21023780  0.05734699     0.34800
C675        C  0.49328696  0.18737168  0.31548510    -0.27000
C676        C  0.48065355  0.21209590  0.33841876    -0.15000
C677        C  0.47159893  0.24971913  0.33016199     0.35600
C678        C  0.47904540  0.26250761  0.30034099    -0.26400
C679        C  0.49406915  0.23846775  0.27815745    -0.15700
C680        C  0.49993812  0.20027771  0.28546158     0.36700
N681        N  0.51481413  0.17508228  0.26294335    -0.89900
H682        H  0.50020656  0.15851169  0.32121177     0.17800
H683        H  0.47355159  0.29162152  0.29442957     0.17800
N684        N  0.45574761  0.27518649  0.35226191    -0.88900
H685        H  0.49594535  0.15268453  0.26065616     0.35200
H686        H  0.54024012  0.16425790  0.27104586     0.40300
H687        H  0.42920857  0.26481023  0.35843493     0.39900
H688        H  0.45140760  0.30180860  0.34265900     0.34800
C689        C  0.84435605  0.87112355  0.38124612    -0.27000
C690        C  0.83957725  0.89362361  0.35521365    -0.15000
C691        C  0.86116036  0.88589588  0.32874389     0.35600
C692        C  0.88943338  0.85806273  0.32968233    -0.26400
C693        C  0.89701672  0.83862705  0.35683849    -0.15700
C694        C  0.87333235  0.84416440  0.38239487     0.36700
N695        N  0.88027394  0.82407414  0.41019022    -0.89900
H696        H  0.82831694  0.87719027  0.40179555     0.17800
H697        H  0.90790001  0.85417254  0.31014057     0.17800
N698        N  0.85617244  0.90851010  0.30181218    -0.88900
H699        H  0.85579691  0.80929791  0.41604718     0.35200
H700        H  0.88545899  0.84372378  0.42739227     0.40300
H701        H  0.82891331  0.90366020  0.29386386     0.39900
H702        H  0.87463971  0.89989280  0.28449697     0.34800
C703        C  0.61413298  0.09237827  0.37387456    -0.27000
C704        C  0.61939764  0.12297613  0.39361275    -0.15000
C705        C  0.65621134  0.13240197  0.40288373     0.35600
C706        C  0.68665807  0.11014042  0.39327058    -0.26400
C707        C  0.68135560  0.07839138  0.37470882    -0.15700
C708        C  0.64462843  0.06962494  0.36464598     0.36700
N709        N  0.63831532  0.03806781  0.34488657    -0.89900
H710        H  0.58588370  0.08506008  0.36681987     0.17800
H711        H  0.71477020  0.11736172  0.40075459     0.17800
N712        N  0.66253394  0.16442705  0.42223449    -0.88900
H713        H  0.61026787  0.03730056  0.33782975     0.35200
H714        H  0.64254209  0.01360985  0.35772145     0.40300
H715        H  0.65478979  0.18850747  0.40999452     0.39900
H716        H  0.69113169  0.16728228  0.42719604     0.34800
C717        C  0.60382930  0.84562729  0.12625279    -0.27000
C718        C  0.57966888  0.84333283  0.10107941    -0.15000
C719        C  0.58573673  0.86734334  0.07588948     0.35600
C720        C  0.61240198  0.89630974  0.07776741    -0.26400
C721        C  0.63339687  0.90148372  0.10442407    -0.15700
C722        C  0.63055789  0.87483726  0.12817197     0.36700
N723        N  0.65201365  0.87959273  0.15544920    -0.89900
H724        H  0.59912095  0.82754356  0.14587615     0.17800
H725        H  0.61463595  0.91656268  0.05927437     0.17800
N726        N  0.56270727  0.86403629  0.04928458    -0.88900
H727        H  0.66770641  0.85508152  0.15891356     0.35200
H728        H  0.63322830  0.88244869  0.17377927     0.40300
H729        H  0.58043447  0.85986128  0.03044499     0.39900
H730        H  0.54846659  0.88950129  0.04612586     0.34800
C731        C  0.57949445  0.18153920  0.13627334    -0.27000
C732        C  0.58205054  0.19079668  0.16729942    -0.15000
C733        C  0.60602979  0.16937907  0.18620726     0.35600
C734        C  0.62578408  0.13848254  0.17400285    -0.26400
C735        C  0.62279732  0.12908585  0.14300560    -0.15700
C736        C  0.59967860  0.15126547  0.12397950     0.36700
N737        N  0.59551176  0.14252789  0.09227457    -0.89900
H738        H  0.56163823  0.19792342  0.12128472     0.17800
H739        H  0.64354664  0.12180212  0.18882917     0.17800
N740        N  0.60985150  0.17830767  0.21789590    -0.88900
H741        H  0.60430545  0.16592039  0.07955983     0.35200
H742        H  0.56685561  0.13856783  0.08809080     0.40300
H743        H  0.63830057  0.18361693  0.22211643     0.39900
H744        H  0.60185325  0.15468481  0.23066862     0.34800
C745        C  0.55539947  0.07063095  0.05169089    -0.27000
C746        C  0.58586661  0.04827774  0.04213954    -0.15000
C747        C  0.59037693  0.04049473  0.01061968     0.35600
C748        C  0.56850352  0.05987319  0.98943354    -0.26400
C749        C  0.54333098  0.08714224  0.50015035    -0.15700
C750        C  0.53444661  0.09121975  0.03034117     0.36700
N751        N  0.51148006  0.12247468  0.54138137    -0.89900
H752        H  0.55043387  0.07512837  0.07582873     0.17800
H753        H  0.57452690  0.05622022  0.96532036     0.17800
N754        N  0.61771014  0.01423264  0.99933428    -0.88900
H755        H  0.50929066  0.12289983  0.56517987     0.35200
H756        H  0.48457494  0.11635048  0.53322412     0.40300
H757        H  0.61424866  0.98878032  0.01105535     0.39900
H758        H  0.64477738  0.02459883  0.00307452     0.34800
C759        C  0.77326019  0.01089539  0.50824187    -0.27000
C760        C  0.74388589  0.99085697  0.01725187    -0.15000
C761        C  0.72246695  0.97050957  0.99600341     0.35600
C762        C  0.74057514  0.95945421  0.46840097    -0.26400
C763        C  0.76925813  0.98348018  0.45758811    -0.15700
C764        C  0.78604374  0.00905212  0.47808555     0.36700
N765        N  0.81400716  0.03564090  0.46843615    -0.89900
H766        H  0.78545840  0.03174942  0.52327723     0.17800
H767        H  0.72737643  0.94004912  0.45270267     0.17800
N768        N  0.68686140  0.95446490  0.00485647    -0.88900
H769        H  0.80248491  0.05243043  0.45127219     0.35200
H770        H  0.83725091  0.02103786  0.45976807     0.40300
H771        H  0.69219914  0.93295311  0.02056214     0.39900
H772        H  0.67388979  0.94179483  0.98614716     0.34800
C773        C  0.68281537  0.00387303  0.22862325    -0.27000
C774        C  0.70658974  0.98821432  0.20631141    -0.15000
C775        C  0.74107071  0.97183120  0.21551528     0.35600
C776        C  0.75190580  0.97312932  0.24629368    -0.26400
C777        C  0.72916652  0.99093954  0.26809193    -0.15700
C778        C  0.69404953  0.00570559  0.25928008     0.36700
N779        N  0.66994286  0.02308714  0.28144017    -0.89900
H780        H  0.65625353  0.01643645  0.22207402     0.17800
H781        H  0.77903865  0.96184845  0.25286777     0.17800
N782        N  0.76544851  0.95421927  0.19362293    -0.88900
H783        H  0.64424140  0.00872104  0.28152410     0.35200
H784        H  0.66491116  0.05079963  0.27448818     0.40300
H785        H  0.79148172  0.96796669  0.19411501     0.39900
H786        H  0.76960957  0.92630460  0.20040990     0.34800
C787        C  0.08227838  0.36295826  0.46365966    -0.27000
C788        C  0.07622706  0.34200425  0.43703831    -0.15000
C789        C  0.10122528  0.34630973  0.41207133     0.35600
C790        C  0.12952126  0.37428948  0.41318699    -0.26400
C791        C  0.13280064  0.39790231  0.43873335    -0.15700
C792        C  0.11033123  0.39071551  0.46467930     0.36700
N793        N  0.11436093  0.41344655  0.49143580    -0.89900
H794        H  0.06316575  0.35986920  0.48291372     0.17800
H795        H  0.14644215  0.38011140  0.39304014     0.17800
N796        N  0.09528689  0.32505842  0.38464561    -0.88900
H797        H  0.12024450  0.39561278  0.50980924     0.35200
H798        H  0.08860375  0.42669138  0.49583780     0.40300
H799        H  0.09982522  0.29669443  0.38988120     0.39900
H800        H  0.11527387  0.33236353  0.36802811     0.34800
C801        C  0.86147049  0.18798492  0.39985137    -0.27000
C802        C  0.89290516  0.18325951  0.41878765    -0.15000
C803        C  0.90317749  0.14657283  0.42789276     0.35600
C804        C  0.88248035  0.11547952  0.41750862    -0.26400
C805        C  0.85181012  0.12018756  0.39780345    -0.15700
C806        C  0.84090751  0.15692657  0.38919876     0.36700
N807        N  0.80903656  0.16258570  0.36963684    -0.89900
H808        H  0.85323627  0.21607749  0.39287590     0.17800
H809        H  0.89118328  0.08742382  0.42421425     0.17800
N810        N  0.93428559  0.14065138  0.44794435    -0.88900
H811        H  0.80497790  0.19124950  0.36525768     0.35200
H812        H  0.78510991  0.15322791  0.38144079     0.40300
H813        H  0.95389559  0.12358563  0.43668322     0.39900
H814        H  0.92436199  0.12576443  0.46697246     0.34800
C815        C  0.08694880  0.11644352  0.21440918    -0.27000
C816        C  0.08127222  0.13836553  0.18818089    -0.15000
C817        C  0.10573411  0.13406146  0.16288428     0.35600
C818        C  0.13295982  0.10510803  0.16326011    -0.26400
C819        C  0.13519584  0.08021815  0.18812800    -0.15700
C820        C  0.11353217  0.08724596  0.21456135     0.36700
N821        N  0.11662007  0.06268655  0.24054886    -0.89900
H822        H  0.06802492  0.11973266  0.23375260     0.17800
H823        H  0.14952203  0.09945925  0.14291205     0.17800
N824        N  0.10058706  0.15668798  0.13596453    -0.88900
H825        H  0.09812475  0.07107819  0.25795349     0.35200
H826        H  0.14378735  0.06582401  0.24910118     0.40300
H827        H  0.07453765  0.14967583  0.12656148     0.39900
H828        H  0.12093740  0.15005895  0.11947000     0.34800
C829        C  0.82801350  0.07395188  0.11043123    -0.27000
C830        C  0.79275053  0.08043005  0.12399099    -0.15000
C831        C  0.78951522  0.10626600  0.14811963     0.35600
C832        C  0.82133567  0.12572624  0.15801903    -0.26400
C833        C  0.85677731  0.11980073  0.14440957    -0.15700
C834        C  0.86023141  0.09330775  0.12043456     0.36700
N835        N  0.89631686  0.08546850  0.10680067    -0.89900
H836        H  0.83035855  0.05384245  0.09194755     0.17800
H837        H  0.81822788  0.14538896  0.17674936     0.17800
N838        N  0.75407807  0.11193868  0.16328364    -0.88900
H839        H  0.89364911  0.06601849  0.08906624     0.35200
H840        H  0.91289636  0.07252291  0.12343972     0.40300
H841        H  0.74720426  0.14049381  0.16174582     0.39900
H842        H  0.75736819  0.10518880  0.18636534     0.34800
C843        C  0.88154020  0.03920955  0.26227011    -0.27000
C844        C  0.88860389  0.04588785  0.29327394    -0.15000
C845        C  0.91936877  0.06911263  0.30140093     0.35600
C846        C  0.93864451  0.08906981  0.27864509    -0.26400
C847        C  0.92827033  0.08593964  0.24794649    -0.15700
C848        C  0.90114615  0.05893173  0.23941044     0.36700
N849        N  0.89079762  0.05450103  0.20792839    -0.89900
H850        H  0.85854887  0.02078516  0.25593403     0.17800
H851        H  0.95992361  0.10933551  0.28520787     0.17800
N852        N  0.92974886  0.07553018  0.33250808    -0.88900
H853        H  0.86858718  0.03533558  0.20582423     0.35200
H854        H  0.91379086  0.04258159  0.19652783     0.40300
H855        H  0.93633520  0.04959406  0.34256283     0.39900
H856        H  0.90708374  0.08766065  0.34412167     0.34800
C857        C  0.96392121  0.18936640  0.06721968    -0.27000
C858        C  0.99211003  0.20519986  0.08528117    -0.15000
C859        C  0.01653399  0.23234076  0.07250747     0.35600
C860        C  0.01120554  0.24457800  0.04225486    -0.26400
C861        C  0.98110344  0.23073848  0.02493678    -0.15700
C862        C  0.95792626  0.20218101  0.03737604     0.36700
N863        N  0.92784728  0.18644991  0.01989904    -0.89900
H864        H  0.94495175  0.16853893  0.07692088     0.17800
H865        H  0.02939956  0.26627901  0.03288450     0.17800
N866        N  0.04640198  0.24778926  0.09034908    -0.88900
H867        H  0.90265016  0.19094979  0.03182244     0.35200
H868        H  0.93837903  0.15177368  0.51552468     0.40300
H869        H  0.04276122  0.27697553  0.09129650     0.39900
H870        H  0.07181012  0.24238925  0.07898266     0.34800
C871        C  0.00576390  0.22943222  0.29350059    -0.27000
C872        C  0.98013909  0.24757889  0.27422359    -0.15000
C873        C  0.95888793  0.27829019  0.28539720     0.35600
C874        C  0.96301111  0.28955078  0.31591784    -0.26400
C875        C  0.98712699  0.27012818  0.33565942    -0.15700
C876        C  0.00908827  0.24004334  0.32429949     0.36700
N877        N  0.03408935  0.21997691  0.34422740    -0.89900
H878        H  0.02184073  0.20574745  0.28489700     0.08200
H879        H  0.94593005  0.31239548  0.32475803     0.17800
N880        N  0.93267187  0.29741430  0.26586162    -0.88900
H881        H  0.05488813  0.23884944  0.35123350     0.35200
H882        H  0.04787977  0.19840632  0.33241017     0.40300
H883        H  0.94815964  0.31026416  0.24832506     0.39900
H884        H  0.91891151  0.31899163  0.27769282     0.34800
C885        C  0.83687555  0.61205372  0.12002000    -0.27000
C886        C  0.83540522  0.58736191  0.09513270    -0.15000
C887        C  0.85768043  0.59485235  0.06911793     0.35600
C888        C  0.88477473  0.62381242  0.07002549    -0.26400
C889        C  0.88971481  0.64500794  0.09672117    -0.15700
C890        C  0.86370615  0.64107541  0.12094312     0.36700
N891        N  0.86725860  0.66422407  0.14764524    -0.89900
H892        H  0.81961763  0.60634893  0.14001240     0.17800
H893        H  0.90470988  0.62669139  0.05131170     0.17800
N894        N  0.85545113  0.57074431  0.04303957    -0.88900
H895        H  0.84647637  0.65736707  0.16374555     0.35200
H896        H  0.86223434  0.69205997  0.14098607     0.40300
H897        H  0.88195952  0.55867109  0.03939067     0.39900
H898        H  0.84913013  0.58743137  0.02407354     0.34800
C899        C  0.68343627  0.40484989  0.15979685    -0.27000
C900        C  0.69270078  0.40028989  0.12876385    -0.15000
C901        C  0.67368798  0.37239885  0.11177433     0.35600
C902        C  0.64495008  0.35098971  0.12564901    -0.26400
C903        C  0.63503579  0.35655421  0.15629968    -0.15700
C904        C  0.65505370  0.38327411  0.17363568     0.36700
N905        N  0.64670464  0.38938638  0.20527263    -0.89900
H906        H  0.69826792  0.42542151  0.17345463     0.17800
H907        H  0.62945871  0.33087792  0.11210366     0.17800
N908        N  0.68244419  0.36656918  0.08016968    -0.88900
H909        H  0.64985000  0.36378767  0.21684216     0.35200
H910        H  0.61866926  0.39781339  0.20726226     0.40300
H911        H  0.65796160  0.37106858  0.06755403     0.39900
H912        H  0.69043386  0.33844936  0.07738222     0.34800
C913        C  0.90607420  0.32718154  0.17470313    -0.27000
C914        C  0.89415836  0.29137032  0.16556104    -0.15000
C915        C  0.86147465  0.28800442  0.14740454     0.35600
C916        C  0.84252053  0.32070183  0.13784275    -0.26400
C917        C  0.85555740  0.35663351  0.14586192    -0.15700
C918        C  0.88687879  0.35975464  0.16552582     0.36700
N919        N  0.89923435  0.39599368  0.17608777    -0.89900
H920        H  0.93037942  0.32979645  0.18936651     0.17800
H921        H  0.81844887  0.31809900  0.12293024     0.17800
N922        N  0.84824733  0.25160038  0.13794126    -0.88900
H923        H  0.92280961  0.39334169  0.19008917     0.35200
H924        H  0.87767525  0.40713663  0.18971498     0.40300
H925        H  0.86864755  0.24008688  0.12338571     0.39900
H926        H  0.82362025  0.25410503  0.12515204     0.34800
C927        C  0.93072490  0.41120897  0.05285701    -0.27000
C928        C  0.90473903  0.43929262  0.04506464    -0.15000
C929        C  0.89944910  0.44845640  0.01417495     0.35600
C930        C  0.90752792  0.42301039  0.49104216    -0.26400
C931        C  0.93029202  0.39218992  0.49898970    -0.15700
C932        C  0.94698600  0.38847468  0.03020911     0.36700
N933        N  0.97075004  0.35763341  0.03874948    -0.89900
H934        H  0.93474574  0.40381477  0.07664931     0.17800
H935        H  0.89911704  0.42705907  0.46752169     0.17800
N936        N  0.87297311  0.47701347  0.00588743    -0.88900
H937        H  0.95550375  0.33998305  0.05345110     0.35200
H938        H  0.99358397  0.36846140  0.05084955     0.40300
H939        H  0.85199257  0.46447497  0.99270820     0.39900
H940        H  0.88697442  0.49679921  0.99223696     0.34800
C941        C  0.62226427  0.59315082  0.32590712    -0.27000
C942        C  0.64147334  0.58592470  0.35317608    -0.15000
C943        C  0.63373828  0.60839278  0.37896765     0.35600
C944        C  0.60475695  0.63528998  0.37801029    -0.26400
C945        C  0.58252390  0.63921876  0.35190083    -0.15700
C946        C  0.59243972  0.61925082  0.32525402     0.36700
N947        N  0.57069303  0.62378774  0.29807606    -0.89900
H948        H  0.62760608  0.57573413  0.30605753     0.17800
H949        H  0.59716657  0.65024539  0.39869973     0.17800
N950        N  0.65347799  0.60186826  0.40689783    -0.88900
H951        H  0.55961875  0.59752964  0.29217811     0.35200
H952        H  0.58888040  0.63238085  0.28053649     0.40300
H953        H  0.63375810  0.59459288  0.42374131     0.39900
H954        H  0.66623270  0.62712231  0.41336049     0.34800
C955        C  0.57952229  0.35349056  0.38636857    -0.27000
C956        C  0.61918491  0.35379154  0.38592296    -0.15000
C957        C  0.63864022  0.32258661  0.39802777     0.35600
C958        C  0.61802541  0.29251964  0.41099975    -0.26400
C959        C  0.57831159  0.29265112  0.41205017    -0.15700
C960        C  0.55891442  0.32356846  0.39921608     0.36700
N961        N  0.51842605  0.32437215  0.39857534    -0.89900
H962        H  0.56425396  0.37703692  0.37672281     0.17800
H963        H  0.63321818  0.26886018  0.42053641     0.17800
N964        N  0.67910381  0.32188196  0.39802071    -0.88900
H965        H  0.50885022  0.34720025  0.38565981     0.35200
H966        H  0.50898148  0.32914850  0.42088515     0.40300
H967        H  0.68807587  0.31915922  0.37535909     0.39900
H968        H  0.68893309  0.29799892  0.40946426     0.34800
C969        C  0.55087754  0.42034410  0.30292864    -0.27000
C970        C  0.57680740  0.44803834  0.29387899    -0.15000
C971        C  0.57965209  0.45782973  0.26262269     0.35600
C972        C  0.56017872  0.43627385  0.24097925    -0.26400
C973        C  0.53934153  0.40448207  0.24993269    -0.15700
C974        C  0.53316828  0.39768803  0.28132457     0.36700
N975        N  0.51209526  0.36578629  0.29189090    -0.89900
H976        H  0.54877117  0.41245326  0.32681159     0.17800
H977        H  0.56507874  0.44167490  0.21690998     0.17800
N978        N  0.60487855  0.48672061  0.25192834    -0.88900
H979        H  0.52542636  0.34133089  0.28426299     0.35200
H980        H  0.48526440  0.36701547  0.28232987     0.40300
H981        H  0.61730011  0.50072238  0.27023815     0.39900
H982        H  0.58870573  0.50684848  0.24053128     0.34800
C983        C  0.81196459  0.37736464  0.35339949    -0.27000
C984        C  0.79164887  0.40124763  0.37311536    -0.15000
C985        C  0.80124980  0.40221443  0.40431667     0.35600
C986        C  0.83041951  0.37948758  0.41521893    -0.26400
C987        C  0.85114373  0.35610368  0.39557180    -0.15700
C988        C  0.84193626  0.35520897  0.36430704     0.36700
N989        N  0.86255247  0.33155170  0.34370202    -0.89900
H990        H  0.80491795  0.37625723  0.32938591     0.17800
H991        H  0.83747411  0.38091559  0.43923257     0.17800
N992        N  0.78101217  0.42576305  0.42526588    -0.88900
H993        H  0.87412636  0.34856969  0.32653008     0.35200
H994        H  0.84356360  0.31300208  0.33352059     0.40300
H995        H  0.80021000  0.44410169  0.43545353     0.39900
H996        H  0.76950075  0.40864930  0.44238321     0.34800
C997        C  0.72535085  0.50891676  0.46607503    -0.27000
C998        C  0.70492309  0.47913398  0.45291803    -0.15000
C999        C  0.69999335  0.44562070  0.47002358     0.35600
C1000       C  0.71571553  0.44236815  0.49928511    -0.26400
C1001       C  0.73833412  0.47576951  0.01163684    -0.15700
C1002       C  0.75024217  0.50471259  0.99177900     0.36700
N1003       N  0.77977881  0.52988130  0.00089662    -0.89900
H1004       H  0.72954171  0.53466980  0.45319372     0.17800
H1005       H  0.69965231  0.42979341  0.01819153     0.17800
N1006       N  0.68002847  0.41426385  0.45747473    -0.88900
H1007       H  0.78512503  0.54984188  0.98378690     0.35200
H1008       H  0.80436042  0.51408571  0.00321284     0.40300
H1009       H  0.65757286  0.40777569  0.47213748     0.39900
H1010       H  0.69818768  0.39111673  0.45692181     0.34800
C1011       C  0.72431494  0.50092933  0.23874226    -0.27000
C1012       C  0.74552376  0.48351564  0.26160741    -0.15000
C1013       C  0.78231423  0.47093189  0.25471058     0.35600
C1014       C  0.79681804  0.47523877  0.22506414    -0.26400
C1015       C  0.77542289  0.49204036  0.20178083    -0.15700
C1016       C  0.73894921  0.50562473  0.20907210     0.36700
N1017       N  0.71599081  0.52298700  0.18626192    -0.89900
H1018       H  0.69593704  0.51039601  0.24380943     0.17800
H1019       H  0.82470657  0.46440831  0.22006917     0.17800
N1020       N  0.80485821  0.45205940  0.27701966    -0.88900
H1021       H  0.70887824  0.54999978  0.19379737     0.35200
H1022       H  0.69116900  0.50737581  0.18434293     0.40300
H1023       H  0.79014646  0.42836197  0.28480243     0.39900
H1024       H  0.80886182  0.47022930  0.29543639     0.34800
O1025       O  0.70318118  0.51008085  0.90305984    -0.86000
O1026       O  0.74916817  0.45732447  0.87800070    -0.83000
C1027       C  0.75746132  0.42655314  0.86534527     0.97500
O1028       O  0.73926384  0.41526458  0.84239279    -0.83100
O1029       O  0.67179029  0.38872903  0.86643438    -0.85700
C1030       C  0.63909224  0.38942140  0.87793452     1.02000
O1031       O  0.62031113  0.41947408  0.87758970    -0.78500
O1032       O  0.66098616  0.46734858  0.91384717    -0.78700
C1033       C  0.68808820  0.48779666  0.92222889     1.01900
O1034       O  0.68678449  0.53895059  0.84192880    -0.86000
O1035       O  0.73996898  0.48928265  0.81798021    -0.83100
C1036       C  0.72586815  0.47560206  0.79398151     0.97500
O1037       O  0.69782342  0.45396992  0.79543669    -0.83100
O1038       O  0.63208434  0.42373138  0.81704988    -0.85700
C1039       C  0.60675230  0.44878292  0.81645147     1.02000
O1040       O  0.60762460  0.47671478  0.83443815    -0.78500
O1041       O  0.64068799  0.52882103  0.87432907    -0.78700
C1042       C  0.65680643  0.54968535  0.85489899     1.01900
Cr1043     Cr  0.71691532  0.49671035  0.85969741     1.93700
Cr1044     Cr  0.68496087  0.42369503  0.83210986     1.93200
Cr1045     Cr  0.63580746  0.47284191  0.87374098     1.39100
O1046       O  0.67920377  0.46446228  0.85479994    -1.23700
O1047       O  0.72542737  0.45730340  0.62696266    -0.86000
O1048       O  0.77105883  0.51028691  0.65106942    -0.83000
C1049       C  0.78702261  0.49052043  0.67145494     0.97500
O1050       O  0.81439112  0.46952575  0.66413834    -0.83100
O1051       O  0.85657755  0.41918317  0.63026048    -0.85700
C1052       C  0.83705475  0.38989466  0.63364390     1.02000
O1053       O  0.80449610  0.38870427  0.62251794    -0.78500
O1054       O  0.73805078  0.40991140  0.59675118    -0.78700
C1055       C  0.71846435  0.42445649  0.61774193     1.01900
O1056       O  0.73921901  0.48541545  0.56555086    -0.86000
O1057       O  0.79034701  0.53623765  0.58917947    -0.83100
C1058       C  0.81905920  0.54824247  0.60284259     0.97500
O1059       O  0.83499420  0.52800001  0.62254542    -0.83100
O1060       O  0.86785551  0.47386992  0.58409103    -0.85700
C1061       C  0.86878496  0.44476627  0.56741139     1.02000
O1062       O  0.84469595  0.41870110  0.57042181    -0.78500
O1063       O  0.77810709  0.44313010  0.54661658    -0.78700
C1064       C  0.75221823  0.46697392  0.54310206     1.01900
Cr1065     Cr  0.75938107  0.49489300  0.60775640     1.93700
Cr1066     Cr  0.84001139  0.47214183  0.62381630     1.93200
Cr1067     Cr  0.79175900  0.41872193  0.58567083     1.39100
O1068       O  0.79691527  0.46207259  0.60520492    -1.23700
O1069       O  0.98488175  0.22161721  0.63593100    -0.86000
O1070       O  0.94847527  0.25829710  0.68205070    -0.83000
C1071       C  0.91340859  0.25591560  0.67604544     0.97500
O1072       O  0.89630515  0.22507070  0.67917398    -0.83100
O1073       O  0.88400521  0.14882890  0.68314346    -0.85700
C1074       C  0.88555845  0.13837699  0.65560505     1.02000
O1075       O  0.91602017  0.14141656  0.64099572    -0.78500
O1076       O  0.98859340  0.16090524  0.62650312    -0.78700
C1077       C  0.98855904  0.19476953  0.61746361     1.01900
O1078       O  0.03614557  0.18554071  0.67738320    -0.86000
O1079       O  0.99703879  0.21857368  0.72562925    -0.83100
C1080       C  0.97045878  0.22790955  0.74323896     0.97500
O1081       O  0.93688158  0.22406212  0.73464885    -0.83100
O1082       O  0.93467281  0.14642992  0.73344850    -0.85700
C1083       C  0.93695815  0.11281531  0.72447077     1.02000
O1084       O  0.94138048  0.10537717  0.69639920    -0.78500
O1085       O  0.01190343  0.12923390  0.68408345    -0.78700
C1086       C  0.03987799  0.15083012  0.68353812     1.01900
Cr1087     Cr  0.98936257  0.21821520  0.68053501     1.93700
Cr1088     Cr  0.91607437  0.18566569  0.70585831     1.93200
Cr1089     Cr  0.96411966  0.13767701  0.66335432     1.39100
O1090       O  0.95664364  0.18066173  0.68279243    -1.23700
O1091       O  0.94607755  0.21764708  0.93551417    -0.86000
O1092       O  0.98057674  0.25231255  0.88744431    -0.83000
C1093       C  0.98257390  0.27832396  0.86793478     0.97500
O1094       O  0.98186392  0.31260679  0.87598583    -0.83100
O1095       O  0.91134394  0.33379660  0.89475330    -0.85700
C1096       C  0.88248210  0.33859412  0.91103079     1.02000
O1097       O  0.88309339  0.32886295  0.93877084    -0.78500
O1098       O  0.89397990  0.25140401  0.93431892    -0.78700
C1099       C  0.91075456  0.22029569  0.93088678     1.01900
O1100       O  0.99770796  0.25721471  0.97647673    -0.86000
O1101       O  0.03431674  0.28862456  0.92690005    -0.83100
C1102       C  0.03856888  0.32343020  0.93205515     0.97500
O1103       O  0.01113369  0.34564989  0.93152344    -0.83100
O1104       O  0.94283479  0.37071555  0.94840207    -0.85700
C1105       C  0.94100467  0.36365240  0.97686979     1.02000
O1106       O  0.93753250  0.33019768  0.98623458    -0.78500
O1107       O  0.93818031  0.25246320  0.98782563    -0.78700
C1108       C  0.97216391  0.24788604  0.99503317     1.01900
Cr1109     Cr  0.98731599  0.25692635  0.93185887     1.93700
Cr1110     Cr  0.96146968  0.33730574  0.91405396     1.93200
Cr1111     Cr  0.91614956  0.29105434  0.95981759     1.39100
O1112       O  0.95516614  0.29498198  0.93478885    -1.23700
O1113       O  0.75696750  0.02232787  0.60920411    -0.86000
O1114       O  0.71904405  0.98931803  0.65657784    -0.83000
C1115       C  0.69202601  0.98738671  0.67526017     0.97500
O1116       O  0.65817073  0.98823980  0.66633384    -0.83100
O1117       O  0.63966490  0.06000631  0.64802252    -0.85700
C1118       C  0.63710768  0.08917727  0.63174707     1.02000
O1119       O  0.64794962  0.08811470  0.60430763    -0.78500
O1120       O  0.72383651  0.07479165  0.61021120    -0.78700
C1121       C  0.75443571  0.05757995  0.61423693     1.01900
O1122       O  0.71737253  0.97134573  0.56755122    -0.86000
O1123       O  0.68324088  0.93615191  0.61673525    -0.83100
C1124       C  0.64869982  0.93248963  0.61039489     0.97500
O1125       O  0.62699397  0.96041088  0.60980728    -0.83100
O1126       O  0.60410533  0.03033308  0.59362207    -0.85700
C1127       C  0.61183042  0.03369218  0.56536576     1.02000
O1128       O  0.64564337  0.03448941  0.55636785    -0.78500
O1129       O  0.72358211  0.03075808  0.55641960    -0.78700
C1130       C  0.72705977  0.99669910  0.54898867     1.01900
Cr1131     Cr  0.71627823  0.98217730  0.61216901     1.93700
Cr1132     Cr  0.63565513  0.00986844  0.62811095     1.93200
Cr1133     Cr  0.68485207  0.05397929  0.58370877     1.39100
O1134       O  0.67896388  0.01511424  0.60838848    -1.23700
O1135       O  0.75038668  0.99359871  0.90537931    -0.86000
O1136       O  0.71243264  0.02687288  0.85852433    -0.83000
C1137       C  0.71418980  0.06210427  0.86368340     0.97500
O1138       O  0.74508119  0.07928217  0.86097170    -0.83100
O1139       O  0.82108453  0.09245405  0.85789477    -0.85700
C1140       C  0.83177100  0.09019917  0.88532223     1.02000
O1141       O  0.83073831  0.05908876  0.89914014    -0.78500
O1142       O  0.81087811  0.98616531  0.91320452    -0.78700
C1143       C  0.77744047  0.98833609  0.92329703     1.01900
O1144       O  0.78601283  0.94016283  0.86484258    -0.86000
O1145       O  0.75226387  0.97743770  0.81633227    -0.83100
C1146       C  0.74294460  0.00348306  0.79835063     0.97500
O1147       O  0.74779052  0.03744922  0.80579808    -0.83100
O1148       O  0.82528696  0.04207488  0.80683987    -0.85700
C1149       C  0.85884406  0.03970971  0.81581561     1.02000
O1150       O  0.86607031  0.03465298  0.84373748    -0.78500
O1151       O  0.84164592  0.96378496  0.85441425    -0.78700
C1152       C  0.82014500  0.93588454  0.85677308     1.01900
Cr1153     Cr  0.75309762  0.98677868  0.86095900     1.93700
Cr1154     Cr  0.78530687  0.05973737  0.83456955     1.93200
Cr1155     Cr  0.83389524  0.01130022  0.87631605     1.39100
O1156       O  0.79065437  0.01932865  0.85760382    -1.23700
O1157       O  0.52371446  0.26342457  0.93448120    -0.86000
O1158       O  0.48570105  0.22717609  0.89026330    -0.83000
C1159       C  0.48109467  0.20093252  0.87144732     0.97500
O1160       O  0.48040491  0.16690939  0.88033534    -0.83100
O1161       O  0.55279439  0.14564736  0.89326428    -0.85700
C1162       C  0.58384482  0.14329891  0.90677696     1.02000
O1163       O  0.58649663  0.15333894  0.93427962    -0.78500
O1164       O  0.57530853  0.22953301  0.93001671    -0.78700
C1165       C  0.55821968  0.26032275  0.92651094     1.01900
O1166       O  0.47604132  0.22541246  0.98025598    -0.86000
O1167       O  0.43457803  0.19218800  0.93348618    -0.83100
C1168       C  0.43011892  0.15749122  0.93958225     0.97500
O1169       O  0.45762027  0.13530042  0.93907993    -0.83100
O1170       O  0.52839560  0.11065151  0.94961972    -0.85700
C1171       C  0.53425091  0.11810328  0.97751597     1.02000
O1172       O  0.53765913  0.15169416  0.98635309    -0.78500
O1173       O  0.53660399  0.22946972  0.98675158    -0.78700
C1174       C  0.50360094  0.23454021  0.99665639     1.01900
Cr1175     Cr  0.48215995  0.22409028  0.93488191     1.93700
Cr1176     Cr  0.50522955  0.14308787  0.91697096     1.93200
Cr1177     Cr  0.55575221  0.19058187  0.95775855     1.39100
O1178       O  0.51419258  0.18596755  0.93619285    -1.23700
O1179       O  0.47456176  0.27459949  0.63852629    -0.86000
O1180       O  0.52677741  0.22803283  0.66441426    -0.83000
C1181       C  0.55658928  0.21911144  0.67820703     0.97500
O1182       O  0.56717687  0.23751038  0.70126606    -0.83100
O1183       O  0.59433588  0.30584347  0.67906276    -0.85700
C1184       C  0.59382679  0.33881641  0.66821998     1.02000
O1185       O  0.56362023  0.35736614  0.66819264    -0.78500
O1186       O  0.51701153  0.31804237  0.62953620    -0.78700
C1187       C  0.49609222  0.29183670  0.62004104     1.01900
O1188       O  0.44273237  0.28931728  0.69847874    -0.86000
O1189       O  0.49136248  0.23601943  0.72331169    -0.83100
C1190       C  0.50314084  0.25034739  0.74784598     0.97500
O1191       O  0.52553955  0.27782752  0.74733244    -0.83100
O1192       O  0.55667148  0.34396941  0.72827060    -0.85700
C1193       C  0.53117536  0.36883643  0.72898796     1.02000
O1194       O  0.50427967  0.36839262  0.71009414    -0.78500
O1195       O  0.45435402  0.33668883  0.66775420    -0.78700
C1196       C  0.43230196  0.31930903  0.68550548     1.01900
Cr1197     Cr  0.48622081  0.25990038  0.68181379     1.93700
Cr1198     Cr  0.55775153  0.29155506  0.71205056     1.93200
Cr1199     Cr  0.51018062  0.34159487  0.67021036     1.39100
O1200       O  0.51803903  0.29763366  0.68827325    -1.23700
O1201       O  0.25873134  0.94954856  0.68474956    -0.86000
O1202       O  0.22271269  0.98408085  0.63810235    -0.83000
C1203       C  0.19685217  0.98656533  0.61868164     0.97500
O1204       O  0.16266659  0.98662341  0.62708165    -0.83100
O1205       O  0.14393333  0.91423862  0.64273333    -0.85700
C1206       C  0.14004094  0.88459295  0.65811671     1.02000
O1207       O  0.14966490  0.88422714  0.68576822    -0.78500
O1208       O  0.22572351  0.89726358  0.68183232    -0.78700
C1209       C  0.25647210  0.91458252  0.67854445     1.01900
O1210       O  0.21802349  0.99853965  0.72763835    -0.86000
O1211       O  0.18512783  0.03615721  0.67881000    -0.83100
C1212       C  0.15012978  0.03956532  0.68410971     0.97500
O1213       O  0.12859782  0.01152142  0.68363204    -0.83100
O1214       O  0.10515096  0.94101343  0.69744239    -0.85700
C1215       C  0.11178014  0.93731407  0.72578059     1.02000
O1216       O  0.14524102  0.93531882  0.73525580    -0.78500
O1217       O  0.22308525  0.93865665  0.73710173    -0.78700
C1218       C  0.22692658  0.97231110  0.74563337     1.01900
Cr1219     Cr  0.21823428  0.98984330  0.68257292     1.93700
Cr1220     Cr  0.13849101  0.96305900  0.66417295     1.93200
Cr1221     Cr  0.18562909  0.91693077  0.70822976     1.39100
O1222       O  0.18079828  0.95694957  0.68475568    -1.23700
O1223       O  0.27046543  0.01013664  0.88720116    -0.86000
O1224       O  0.22570851  0.95559724  0.91187918    -0.83000
C1225       C  0.21866371  0.92403267  0.92384539     0.97500
O1226       O  0.23884442  0.91130136  0.94505451    -0.83100
O1227       O  0.30651116  0.89079241  0.91821105    -0.85700
C1228       C  0.33937189  0.89271837  0.90717080     1.02000
O1229       O  0.35818370  0.92247060  0.91053255    -0.78500
O1230       O  0.31633508  0.97116833  0.87591968    -0.78700
C1231       C  0.28790127  0.98995601  0.86781803     1.01900
O1232       O  0.28681297  0.03819578  0.94878519    -0.86000
O1233       O  0.23676106  0.98524730  0.97290836    -0.83100
C1234       C  0.25195112  0.96967216  0.99583338     0.97500
O1235       O  0.27930236  0.94752245  0.99246411    -0.83100
O1236       O  0.34578135  0.92217476  0.96939826    -0.85700
C1237       C  0.36978166  0.94830657  0.97216791     1.02000
O1238       O  0.36748896  0.97808855  0.95624810    -0.78500
O1239       O  0.33360436  0.03091887  0.91669900    -0.78700
C1240       C  0.31634156  0.05066872  0.93607567     1.01900
Cr1241     Cr  0.25791167  0.99514623  0.93061102     1.93700
Cr1242     Cr  0.29281226  0.92132866  0.95461847     1.93200
Cr1243     Cr  0.34043694  0.97523481  0.91624705     1.39100
O1244       O  0.29690031  0.96410261  0.93421575    -1.23700
O1245       O  0.44971635  0.76125423  0.85505322    -0.86000
O1246       O  0.48388988  0.72436213  0.90162128    -0.83000
C1247       C  0.48679914  0.69765951  0.92038841     0.97500
O1248       O  0.48787777  0.66378145  0.91125475    -0.83100
O1249       O  0.41622581  0.64186701  0.89570682    -0.85700
C1250       C  0.38579290  0.63988509  0.88123101     1.02000
O1251       O  0.38407464  0.65199998  0.85415784    -0.78500
O1252       O  0.39737595  0.72842638  0.85811185    -0.78700
C1253       C  0.41472035  0.75914036  0.86135061     1.01900
O1254       O  0.49896787  0.72212239  0.81211618    -0.86000
O1255       O  0.53683727  0.68880616  0.86030479    -0.83100
C1256       C  0.54116434  0.65451571  0.85319599     0.97500
O1257       O  0.51357139  0.63245301  0.85294957    -0.83100
O1258       O  0.44338684  0.60776679  0.84078224    -0.85700
C1259       C  0.43765329  0.61492035  0.81286030     1.02000
O1260       O  0.43493109  0.64850433  0.80356623    -0.78500
O1261       O  0.43894649  0.72658831  0.80256450    -0.78700
C1262       C  0.47273997  0.73179595  0.79454502     1.01900
Cr1263     Cr  0.48998800  0.72105527  0.85700562     1.93700
Cr1264     Cr  0.46504942  0.64007988  0.87379096     1.93200
Cr1265     Cr  0.41704108  0.68847817  0.83137967     1.39100
O1266       O  0.45738186  0.68322824  0.85440845    -1.23700
O1267       O  0.48107667  0.75287489  0.65307149    -0.86000
O1268       O  0.45052037  0.71255570  0.60593686    -0.83000
C1269       C  0.41527169  0.71388006  0.61121650     0.97500
O1270       O  0.39748960  0.74430900  0.60800052    -0.83100
O1271       O  0.38234651  0.82006253  0.60408192    -0.85700
C1272       C  0.38416626  0.83191878  0.63127411     1.02000
O1273       O  0.41502907  0.83141748  0.64515563    -0.78500
O1274       O  0.48758159  0.81384768  0.65972737    -0.78700
C1275       C  0.48606704  0.78064411  0.67037033     1.01900
O1276       O  0.53475926  0.78847694  0.61297492    -0.86000
O1277       O  0.50027743  0.75307737  0.56431639    -0.83100
C1278       C  0.47511603  0.74359081  0.54575970     0.97500
O1279       O  0.44069924  0.74726485  0.55279587    -0.83100
O1280       O  0.43277566  0.82459691  0.55266341    -0.85700
C1281       C  0.43523488  0.85856983  0.56078533     1.02000
O1282       O  0.43914085  0.86659682  0.58878373    -0.78500
O1283       O  0.51030773  0.84291152  0.60035747    -0.78700
C1284       C  0.53856707  0.82217638  0.60388567     1.01900
Cr1285     Cr  0.48926646  0.75450072  0.60867237     1.93700
Cr1286     Cr  0.41623942  0.78454205  0.58108148     1.93200
Cr1287     Cr  0.46270808  0.83527748  0.62221647     1.39100
O1288       O  0.45602362  0.79135270  0.60423297    -1.23700
O1289       O  0.96630408  0.70810961  0.65353894    -0.86000
O1290       O  0.02068678  0.75172704  0.62757122    -0.83000
C1291       C  0.05237443  0.75861479  0.61565841     0.97500
O1292       O  0.06544992  0.73800964  0.59475166    -0.83100
O1293       O  0.08820418  0.67189308  0.62328601    -0.85700
C1294       C  0.08640184  0.63969520  0.63552078     1.02000
O1295       O  0.05612463  0.62122883  0.63411926    -0.78500
O1296       O  0.00583534  0.66411255  0.66739232    -0.78700
C1297       C  0.98575382  0.69236314  0.67418288     1.01900
O1298       O  0.94013878  0.68790860  0.59213409    -0.86000
O1299       O  0.99213142  0.73755960  0.56737067    -0.83100
C1300       C  0.00841958  0.72232900  0.54475424     0.97500
O1301       O  0.03003765  0.69460164  0.54859144    -0.83100
O1302       O  0.05705485  0.63010434  0.57403722    -0.85700
C1303       C  0.03088852  0.60627042  0.57164198     1.02000
O1304       O  0.00157463  0.60819830  0.58831960    -0.78500
O1305       O  0.94736695  0.64322254  0.62594479    -0.78700
C1306       C  0.92776429  0.65914476  0.60580144     1.01900
Cr1307     Cr  0.98205383  0.71829770  0.60987940     1.93700
Cr1308     Cr  0.05667316  0.68351415  0.58693802     1.93200
Cr1309     Cr  0.00322512  0.63750174  0.62748682     1.39100
O1310       O  0.01396572  0.67988992  0.60786276    -1.23700
O1311       O  0.02012315  0.72814820  0.87969842    -0.86000
O1312       O  0.97049863  0.77596107  0.90634058    -0.83000
C1313       C  0.99279610  0.79127650  0.92523543     0.97500
O1314       O  0.01352067  0.81806376  0.91641909    -0.83100
O1315       O  0.06209395  0.85841658  0.87994576    -0.85700
C1316       C  0.09162787  0.83882692  0.88029675     1.02000
O1317       O  0.09170185  0.80619429  0.86892653    -0.78500
O1318       O  0.06460500  0.73871381  0.84580579    -0.78700
C1319       C  0.05119117  0.71937885  0.86764626     1.01900
O1320       O  0.98862149  0.74081250  0.82016350    -0.86000
O1321       O  0.94083094  0.79487316  0.84550556    -0.83100
C1322       C  0.93042658  0.82417251  0.85943250     0.97500
O1323       O  0.95216106  0.83954130  0.87830564    -0.83100
O1324       O  0.00408916  0.87070243  0.83691398    -0.85700
C1325       C  0.03165836  0.87073410  0.81842920     1.02000
O1326       O  0.05709375  0.84583792  0.81959943    -0.78500
O1327       O  0.02738409  0.78066047  0.79801940    -0.78700
C1328       C  0.00405034  0.75408311  0.79629324     1.01900
Cr1329     Cr  0.98235966  0.76289700  0.86237455     1.93700
Cr1330     Cr  0.00827210  0.84319967  0.87645219     1.93200
Cr1331     Cr  0.05686436  0.79315169  0.83495678     1.39100
O1332       O  0.01591543  0.79958765  0.85766215    -1.23700
O1333       O  0.21466622  0.52134793  0.68563929    -0.86000
O1334       O  0.25049229  0.48716023  0.63845741    -0.83000
C1335       C  0.27696132  0.48228726  0.61971151     0.97500
O1336       O  0.31088881  0.48040931  0.62852114    -0.83100
O1337       O  0.33288409  0.55258031  0.64208128    -0.85700
C1338       C  0.33496105  0.58331062  0.65622668     1.02000
O1339       O  0.32422144  0.58520371  0.68376203    -0.78500
O1340       O  0.24770437  0.57325867  0.68144164    -0.78700
C1341       C  0.21665567  0.55628899  0.67919178     1.01900
O1342       O  0.25509308  0.47156503  0.72735823    -0.86000
O1343       O  0.28677407  0.43356883  0.67830095    -0.83100
C1344       C  0.32110067  0.42923954  0.68533946     0.97500
O1345       O  0.34283048  0.45698613  0.68661063    -0.83100
O1346       O  0.36834419  0.52713195  0.69735468    -0.85700
C1347       C  0.36134980  0.53291362  0.72536869     1.02000
O1348       O  0.32779396  0.53514522  0.73480920    -0.78500
O1349       O  0.25017608  0.53163154  0.73711540    -0.78700
C1350       C  0.24624770  0.49775306  0.74530324     1.01900
Cr1351     Cr  0.25460251  0.48061356  0.68268418     1.93700
Cr1352     Cr  0.33533967  0.50458696  0.66499545     1.93200
Cr1353     Cr  0.28784286  0.55329980  0.70758666     1.39100
O1354       O  0.29251706  0.51287096  0.68468734    -1.23700
O1355       O  0.21962436  0.48960870  0.88789763    -0.86000
O1356       O  0.25745506  0.52311181  0.93393075    -0.83000
C1357       C  0.25598619  0.55812717  0.92764033     0.97500
O1358       O  0.22565908  0.57621477  0.93159563    -0.83100
O1359       O  0.14881465  0.59117656  0.93831914    -0.85700
C1360       C  0.13736175  0.59122682  0.91110213     1.02000
O1361       O  0.14074521  0.56190260  0.89533369    -0.78500
O1362       O  0.15903280  0.49009892  0.87791107    -0.78700
C1363       C  0.19305475  0.48823060  0.86907449     1.01900
O1364       O  0.18259706  0.43807302  0.92874304    -0.86000
O1365       O  0.21674610  0.47442207  0.97737592    -0.83100
C1366       C  0.22746485  0.50020246  0.99500683     0.97500
O1367       O  0.22430735  0.53407852  0.98673933    -0.83100
O1368       O  0.14633318  0.53891088  0.98742042    -0.85700
C1369       C  0.11248114  0.53655435  0.97889497     1.02000
O1370       O  0.10463872  0.53322862  0.95072576    -0.78500
O1371       O  0.12648503  0.46309562  0.93463011    -0.78700
C1372       C  0.14773643  0.43484065  0.93432286     1.01900
Cr1373     Cr  0.21614773  0.48375909  0.93238538     1.93700
Cr1374     Cr  0.18586925  0.55707664  0.95914403     1.93200
Cr1375     Cr  0.13620594  0.51231050  0.91602160     1.39100
O1376       O  0.17937387  0.51743032  0.93552551    -1.23700
C1377       C  0.19548997  0.50609340  0.78363136    -0.27000
C1378       C  0.23006612  0.48963925  0.77562047    -0.15000
C1379       C  0.25013738  0.46895961  0.79766403     0.35600
C1380       C  0.23655302  0.46728395  0.82769830    -0.26400
C1381       C  0.20274973  0.48523240  0.83620396    -0.15700
C1382       C  0.18137982  0.50357521  0.81358384     0.36700
N1383       N  0.14631561  0.52125324  0.82114308    -0.89900
H1384       H  0.17979141  0.52179269  0.76669588     0.17800
H1385       H  0.25313665  0.45273104  0.84472709     0.17800
N1386       N  0.28525950  0.45106734  0.79054757    -0.88900
H1387       H  0.12541653  0.50926323  0.80757245     0.35200
H1388       H  0.14835117  0.54975115  0.81535598     0.40300
H1389       H  0.30394851  0.47143470  0.78216930     0.39900
H1390       H  0.28063359  0.43123056  0.77340050     0.34800
C1391       C  0.28701851  0.50677656  0.56782835    -0.27000
C1392       C  0.26799000  0.48130581  0.58691613    -0.15000
C1393       C  0.23729111  0.46035778  0.57513814     0.35600
C1394       C  0.22561288  0.46680056  0.54499924    -0.26400
C1395       C  0.24365178  0.49362210  0.52647112    -0.15700
C1396       C  0.27487470  0.51342617  0.53795297     0.36700
N1397       N  0.29416878  0.54064391  0.51941877    -0.89900
H1398       H  0.31022326  0.52322211  0.57668463     0.17800
H1399       H  0.20152474  0.45153781  0.53631945     0.17800
N1400       N  0.21718714  0.43272216  0.59297151    -0.88900
H1401       H  0.32244652  0.53264031  0.51784743     0.35200
H1402       H  0.29296537  0.56659931  0.53059159     0.40300
H1403       H  0.23001592  0.42807009  0.61398412     0.39900
H1404       H  0.21911414  0.40707386  0.58140034     0.34800
C1405       C  0.09285604  0.64398772  0.91965976    -0.27000
C1406       C  0.11640192  0.62431122  0.89935551    -0.15000
C1407       C  0.11791202  0.63552406  0.86844997     0.35600
C1408       C  0.09614060  0.66641025  0.85865222    -0.26400
C1409       C  0.07233986  0.68600001  0.87895367    -0.15700
C1410       C  0.07060662  0.67411573  0.90987890     0.36700
N1411       N  0.04724170  0.69237782  0.93216473    -0.89900
H1412       H  0.09102318  0.63532021  0.94337999     0.17800
H1413       H  0.09768453  0.67515166  0.83496490     0.17800
N1414       N  0.14183506  0.61589858  0.84723386    -0.88900
H1415       H  0.01906899  0.68917746  0.92602438     0.35200
H1416       H  0.05409184  0.72101367  0.93270476     0.40300
H1417       H  0.16973579  0.62004805  0.85406163     0.39900
H1418       H  0.13952491  0.62745035  0.82539996     0.34800
C1419       C  0.18697937  0.61551474  0.65961122    -0.27000
C1420       C  0.18257823  0.57800626  0.66980287    -0.15000
C1421       C  0.14578452  0.56261896  0.67072964     0.35600
C1422       C  0.11530435  0.58410446  0.66080772    -0.26400
C1423       C  0.11979398  0.62098799  0.64946322    -0.15700
C1424       C  0.15613120  0.63716838  0.64957174     0.36700
N1425       N  0.16189021  0.67510791  0.63902923    -0.89900
H1426       H  0.21478653  0.62805141  0.65907238     0.17800
H1427       H  0.08772050  0.57106052  0.66134104     0.17800
N1428       N  0.13802803  0.52524492  0.68142684    -0.88900
H1429       H  0.19043137  0.68226195  0.63973639     0.35200
H1430       H  0.14811772  0.69301597  0.65437320     0.40300
H1431       H  0.14753060  0.52260872  0.70385112     0.39900
H1432       H  0.15188708  0.50591933  0.66731488     0.34800
C1433       C  0.05285139  0.56647634  0.49569084    -0.27000
C1434       C  0.08214228  0.54267743  0.00167716    -0.15000
C1435       C  0.09007436  0.53490749  0.53437874     0.35600
C1436       C  0.06632562  0.55019348  0.55702144    -0.26400
C1437       C  0.03791593  0.57598829  0.54948522    -0.15700
C1438       C  0.03000725  0.58268083  0.51851026     0.36700
N1439       N  0.00142380  0.60921899  0.51031467    -0.89900
H1440       H  0.04672319  0.57264373  0.96991966     0.17800
H1441       H  0.07293788  0.54560206  0.58087295     0.17800
N1442       N  0.12131364  0.51141203  0.54281054    -0.88900
H1443       H  0.98238344  0.59564525  0.49595195     0.35200
H1444       H  0.01413489  0.63105313  0.49792146     0.40300
H1445       H  0.11700328  0.48493945  0.53304162     0.39900
H1446       H  0.12187710  0.50734063  0.56644457     0.34800
C1447       C  0.97965710  0.75903372  0.74304562    -0.27000
C1448       C  0.99626426  0.73718610  0.76599681    -0.15000
C1449       C  0.00740034  0.70003291  0.75929270     0.35600
C1450       C  0.00219656  0.68560712  0.72963242    -0.26400
C1451       C  0.98591392  0.70741943  0.70625524    -0.15700
C1452       C  0.97366203  0.74446510  0.71347855     0.36700
N1453       N  0.95633555  0.76776455  0.69066791    -0.89900
H1454       H  0.97131084  0.78766597  0.74826569     0.17800
H1455       H  0.01179480  0.65734229  0.72460202     0.17800
N1456       N  0.02512317  0.67748144  0.78240783    -0.88900
H1457       H  0.95112472  0.79474171  0.69920104     0.35200
H1458       H  0.92997790  0.75609142  0.68593708     0.40300
H1459       H  0.05076141  0.69028670  0.78781667     0.39900
H1460       H  0.03165403  0.65078519  0.77393561     0.34800
C1461       C  0.03396520  0.73290047  0.49258548    -0.27000
C1462       C  0.00439734  0.73837565  0.51356135    -0.15000
C1463       C  0.97416197  0.73074704  0.99587904     0.35600
C1464       C  0.97087302  0.74764150  0.96684546    -0.26400
C1465       C  0.99509764  0.77700575  0.95741410    -0.15700
C1466       C  0.02276048  0.78984415  0.97839196     0.36700
N1467       N  0.04930024  0.81888563  0.97104696    -0.89900
H1468       H  0.05837130  0.71647758  0.49906870     0.17800
H1469       H  0.94964057  0.73728428  0.95135504     0.17800
N1470       N  0.94155588  0.76508258  0.52518048    -0.88900
H1471       H  0.03471278  0.84358443  0.96574983     0.35200
H1472       H  0.06558616  0.81023122  0.95238840     0.40300
H1473       H  0.92939560  0.73868958  0.52910122     0.39900
H1474       H  0.93015580  0.69483826  0.98771307     0.34800
C1475       C  0.36289563  0.68439329  0.64034124    -0.27000
C1476       C  0.39416011  0.67987017  0.62092127    -0.15000
C1477       C  0.40370496  0.64342309  0.61074308     0.35600
C1478       C  0.38294528  0.61214929  0.62126571    -0.26400
C1479       C  0.35279383  0.61670080  0.64190724    -0.15700
C1480       C  0.34229084  0.65331238  0.65087806     0.36700
N1481       N  0.31048307  0.65911074  0.67061047    -0.89900
H1482       H  0.35469982  0.71226883  0.64789649     0.17800
H1483       H  0.39119746  0.58418118  0.61399955     0.17800
N1484       N  0.43393042  0.63810559  0.58937152    -0.88900
H1485       H  0.29132485  0.67645000  0.65926823     0.35200
H1486       H  0.31970212  0.67332714  0.69005657     0.40300
H1487       H  0.42302089  0.62508196  0.56995818     0.39900
H1488       H  0.45348564  0.61978715  0.59917863     0.34800
C1489       C  0.28518930  0.61341298  0.90155966    -0.27000
C1490       C  0.29002750  0.57858354  0.91639833    -0.15000
C1491       C  0.32703370  0.56439215  0.92008959     0.35600
C1492       C  0.35796529  0.58571982  0.90950347    -0.26400
C1493       C  0.35281197  0.62037030  0.89466682    -0.15700
C1494       C  0.31605422  0.63403752  0.89043228     0.36700
N1495       N  0.30992346  0.66912150  0.87508184    -0.89900
H1496       H  0.25715638  0.62463785  0.89813443     0.17800
H1497       H  0.38624365  0.57474484  0.91207354     0.17800
N1498       N  0.33325819  0.52844867  0.93434047    -0.88900
H1499       H  0.29506300  0.68678512  0.88992648     0.35200
H1500       H  0.29291662  0.66400848  0.85614024     0.40300
H1501       H  0.32526037  0.53083737  0.95723703     0.39900
H1502       H  0.36192112  0.52168812  0.93420839     0.34800
C1503       C  0.43944952  0.58789893  0.76079787    -0.27000
C1504       C  0.42911154  0.58413706  0.79158639    -0.15000
C1505       C  0.40440387  0.55495220  0.80041321     0.35600
C1506       C  0.38572743  0.53436743  0.77792113    -0.26400
C1507       C  0.39167815  0.54230915  0.74685806    -0.15700
C1508       C  0.42138639  0.56685362  0.73831602     0.36700
N1509       N  0.43169745  0.57343926  0.70708054    -0.89900
H1510       H  0.45950745  0.60938902  0.75396592     0.17800
H1511       H  0.36394895  0.51463754  0.78479061     0.17800
N1512       N  0.39541073  0.54858346  0.83195358    -0.88900
H1513       H  0.40866986  0.58480040  0.69553104     0.35200
H1514       H  0.43907267  0.54769991  0.69719970     0.40300
H1515       H  0.40160377  0.52051097  0.83709063     0.39900
H1516       H  0.36645094  0.55255140  0.83503228     0.34800
C1517       C  0.46025623  0.78931364  0.72232120    -0.27000
C1518       C  0.48834181  0.77400876  0.70352436    -0.15000
C1519       C  0.51486014  0.74883153  0.71617787     0.35600
C1520       C  0.51094068  0.73712727  0.74663849    -0.26400
C1521       C  0.48060418  0.74968012  0.76460437    -0.15700
C1522       C  0.45610643  0.77731349  0.75268622     0.36700
N1523       N  0.42668988  0.79294820  0.77127917    -0.89900
H1524       H  0.44013324  0.80909038  0.71294025     0.17800
H1525       H  0.53048965  0.71661864  0.75574780     0.17800
N1526       N  0.54588875  0.73470955  0.69856390    -0.88900
H1527       H  0.40097185  0.78781458  0.76058022     0.35200
H1528       H  0.43062331  0.82209755  0.77224133     0.40300
H1529       H  0.56120397  0.75766778  0.69014822     0.39900
H1530       H  0.53543343  0.71952202  0.68005789     0.34800
C1531       C  0.50904480  0.73853127  0.96287942    -0.27000
C1532       C  0.48828621  0.70688441  0.95345812    -0.15000
C1533       C  0.46547767  0.68792333  0.97521049     0.35600
C1534       C  0.46329845  0.70126729  0.00520867    -0.26400
C1535       C  0.48502898  0.72701763  0.51591937    -0.15700
C1536       C  0.51143778  0.74412604  0.49610376     0.36700
N1537       N  0.53374449  0.77534842  0.50636717    -0.89900
H1538       H  0.52613276  0.75357156  0.94627719     0.17800
H1539       H  0.44463893  0.68721090  0.02128553     0.17800
N1540       N  0.44196617  0.65683092  0.96708876    -0.88900
H1541       H  0.55051612  0.78576310  0.48853569     0.35200
H1542       H  0.55229870  0.76513481  0.52286313     0.40300
H1543       H  0.45890432  0.63508778  0.95863155     0.39900
H1544       H  0.42351709  0.66572576  0.95011068     0.34800
C1545       C  0.18667961  0.88728119  0.88334287    -0.27000
C1546       C  0.18645546  0.90137504  0.91324038    -0.15000
C1547       C  0.15593699  0.89262911  0.93285921     0.35600
C1548       C  0.12600295  0.87079283  0.92205242    -0.26400
C1549       C  0.12627299  0.85637627  0.89222580    -0.15700
C1550       C  0.15704120  0.86481332  0.87272536     0.36700
N1551       N  0.15803772  0.85238940  0.84164877    -0.89900
H1552       H  0.21002137  0.89382036  0.86814979     0.17800
H1553       H  0.10198730  0.86572450  0.93685721     0.17800
N1554       N  0.15400154  0.90675481  0.96344889    -0.88900
H1555       H  0.13431884  0.86289047  0.83053710     0.35200
H1556       H  0.15679450  0.82295369  0.84149256     0.40300
H1557       H  0.15571731  0.93611357  0.96260728     0.39900
H1558       H  0.17714971  0.89656272  0.97555484     0.34800
C1559       C  0.33986239  0.82416663  0.89519785    -0.27000
C1560       C  0.35737988  0.85944348  0.89259410    -0.15000
C1561       C  0.39320684  0.86175906  0.87815666     0.35600
C1562       C  0.41109819  0.82870044  0.86813949    -0.26400
C1563       C  0.39401159  0.79329309  0.87159887    -0.15700
C1564       C  0.35771418  0.79128611  0.88495563     0.36700
N1565       N  0.33907488  0.75585924  0.88899048    -0.89900
H1566       H  0.31248216  0.82175636  0.90609875     0.17800
H1567       H  0.43863299  0.83072192  0.85744868     0.17800
N1568       N  0.41156625  0.89750402  0.87382466    -0.88900
H1569       H  0.31331721  0.75710194  0.87761567     0.35200
H1570       H  0.33352636  0.75212620  0.91227814     0.40300
H1571       H  0.39548676  0.91300725  0.85839700     0.39900
H1572       H  0.43814306  0.89404557  0.86368701     0.34800
C1573       C  0.42348408  0.90833503  0.98374973    -0.27000
C1574       C  0.40203337  0.93981164  0.99209271    -0.15000
C1575       C  0.40062263  0.94875741  0.52374463     0.35600
C1576       C  0.41478436  0.92381169  0.54605915    -0.26400
C1577       C  0.43026874  0.88880390  0.53759210    -0.15700
C1578       C  0.43665882  0.88152995  0.50634416     0.36700
N1579       N  0.45582907  0.84802635  0.49680271    -0.89900
H1580       H  0.42373646  0.89909283  0.96016300     0.17800
H1581       H  0.41104266  0.93043731  0.57002006     0.17800
N1582       N  0.38290324  0.98346481  0.53239100    -0.88900
H1583       H  0.48143816  0.85958849  0.98199233     0.35200
H1584       H  0.43767389  0.83254360  0.48294752     0.40300
H1585       H  0.39848238  0.00538762  0.52259696     0.39900
H1586       H  0.38414826  0.98710740  0.55606672     0.34800
C1587       C  0.09699805  0.83142233  0.66671609    -0.27000
C1588       C  0.11951690  0.85176135  0.64599835    -0.15000
C1589       C  0.12068553  0.84058318  0.61506310     0.35600
C1590       C  0.09865926  0.81005969  0.60560636    -0.26400
C1591       C  0.07492310  0.79084659  0.62628314    -0.15700
C1592       C  0.07446373  0.80143028  0.65725355     0.36700
N1593       N  0.05173870  0.78125991  0.67914692    -0.89900
H1594       H  0.09677864  0.83912180  0.69060490     0.17800
H1595       H  0.09979724  0.80154926  0.58187019     0.17800
N1596       N  0.14471553  0.85867393  0.59308985    -0.88900
H1597       H  0.05414450  0.79308771  0.70087459     0.35200
H1598       H  0.06238509  0.75387766  0.68070809     0.40300
H1599       H  0.17234366  0.85787950  0.60115895     0.39900
H1600       H  0.13641914  0.88674385  0.59080711     0.34800
C1601       C  0.02843918  0.89274374  0.76548987    -0.27000
C1602       C  0.03751545  0.90066139  0.79588460    -0.15000
C1603       C  0.06489781  0.92812254  0.80226007     0.35600
C1604       C  0.08638672  0.94331481  0.77823132    -0.26400
C1605       C  0.08091797  0.93137031  0.74806716    -0.15700
C1606       C  0.04993166  0.90796059  0.74141661     0.36700
N1607       N  0.04235866  0.89665990  0.71070629    -0.89900
H1608       H  0.00768219  0.87124711  0.76054983     0.17800
H1609       H  0.10961254  0.96202601  0.78334040     0.17800
N1610       N  0.07363932  0.93705026  0.83340592    -0.88900
H1611       H  0.01504326  0.90533245  0.70541457     0.35200
H1612       H  0.04268129  0.86726195  0.70995232     0.40300
H1613       H  0.04980421  0.94975871  0.84301452     0.39900
H1614       H  0.09532873  0.95690416  0.83434284     0.34800
C1615       C  0.19771488  0.97296553  0.53210083    -0.27000
C1616       C  0.23589868  0.97954617  0.52561541    -0.15000
C1617       C  0.25954779  0.99257309  0.54903427     0.35600
C1618       C  0.24523329  0.99735533  0.57847838    -0.26400
C1619       C  0.20768139  0.98833837  0.58579196    -0.15700
C1620       C  0.18330205  0.97690122  0.56204433     0.36700
N1621       N  0.14471258  0.96744322  0.56851731    -0.89900
H1622       H  0.17949777  0.96317158  0.51402751     0.17800
H1623       H  0.26431873  0.00668774  0.59612053     0.17800
N1624       N  0.29851882  0.00056275  0.54368457    -0.88900
H1625       H  0.13146637  0.95733619  0.54892726     0.35200
H1626       H  0.13081855  0.99235215  0.57439960     0.40300
H1627       H  0.30072326  0.01996985  0.52579217     0.39900
H1628       H  0.31167777  0.97552727  0.53718013     0.34800
C1629       C  0.26683741  0.95147774  0.78875147    -0.27000
C1630       C  0.24364927  0.97952837  0.77621416    -0.15000
C1631       C  0.23575167  0.01192602  0.79395976     0.35600
C1632       C  0.25105154  0.01536939  0.82338623    -0.26400
C1633       C  0.27425289  0.98715756  0.83578931    -0.15700
C1634       C  0.28180344  0.95476162  0.81812511     0.36700
N1635       N  0.30333026  0.92416143  0.83035023    -0.89900
H1636       H  0.27308146  0.92623000  0.77582010     0.17800
H1637       H  0.24430499  0.04009218  0.83678981     0.17800
N1638       N  0.21109007  0.04096367  0.78338432    -0.88900
H1639       H  0.32634477  0.91939516  0.81588219     0.35200
H1640       H  0.28645689  0.90000868  0.83035448     0.40300
H1641       H  0.18514728  0.02878453  0.77811134     0.39900
H1642       H  0.22266987  0.05293829  0.76363207     0.34800
C1643       C  0.28379702  0.86226332  0.64828308    -0.27000
C1644       C  0.28973985  0.89308115  0.66779825    -0.15000
C1645       C  0.32683179  0.90135400  0.67723860     0.35600
C1646       C  0.35685560  0.87965569  0.66630813    -0.26400
C1647       C  0.35103920  0.85004703  0.64565039    -0.15700
C1648       C  0.31398279  0.84061850  0.63716670     0.36700
N1649       N  0.30712911  0.80915274  0.61736313    -0.89900
H1650       H  0.25541492  0.85528362  0.64131384     0.17800
H1651       H  0.38517515  0.88699953  0.67319096     0.17800
N1652       N  0.33497529  0.93113779  0.69817165    -0.88900
H1653       H  0.27827551  0.80617128  0.61321640     0.35200
H1654       H  0.31559913  0.78482620  0.62886887     0.40300
H1655       H  0.31903630  0.92706378  0.71800569     0.39900
H1656       H  0.32751434  0.95683267  0.68814640     0.34800
C1657       C  0.36915921  0.33784373  0.66694664    -0.27000
C1658       C  0.39507923  0.33630320  0.69103093    -0.15000
C1659       C  0.39043534  0.36047417  0.71607829     0.35600
C1660       C  0.36188742  0.38772413  0.71570774    -0.26400
C1661       C  0.33831501  0.39189549  0.69028159    -0.15700
C1662       C  0.34068201  0.36554463  0.66629354     0.36700
N1663       N  0.31653799  0.36905338  0.64021671    -0.89900
H1664       H  0.37335562  0.31974657  0.64733094     0.17800
H1665       H  0.36061100  0.40819589  0.73401061     0.17800
N1666       N  0.41720486  0.36004516  0.74040209    -0.88900
H1667       H  0.32185169  0.34738922  0.62466073     0.35200
H1668       H  0.32335348  0.39420409  0.62901018     0.40300
H1669       H  0.40255635  0.35567279  0.76088104     0.39900
H1670       H  0.42995660  0.38655514  0.74140069     0.34800
C1671       C  0.36483972  0.14296810  0.92270920    -0.27000
C1672       C  0.39249048  0.14066622  0.94538237    -0.15000
C1673       C  0.38780776  0.11431380  0.96927370     0.35600
C1674       C  0.35792386  0.08840806  0.96857505    -0.26400
C1675       C  0.33327134  0.08743524  0.94376822    -0.15700
C1676       C  0.33550471  0.11613759  0.92143449     0.36700
N1677       N  0.30997791  0.11577572  0.89612819    -0.89900
H1678       H  0.36844012  0.16295432  0.90418491     0.17800
H1679       H  0.35677504  0.06621212  0.98559890     0.17800
N1680       N  0.41518385  0.11190238  0.99306187    -0.88900
H1681       H  0.31572191  0.13819274  0.88129641     0.35200
H1682       H  0.28287838  0.12026008  0.90487469     0.40300
H1683       H  0.42680212  0.08483682  0.99270309     0.39900
H1684       H  0.40125422  0.11539121  0.01395356     0.34800
C1685       C  0.53130256  0.26899224  0.54013887    -0.27000
C1686       C  0.49989100  0.25103715  0.52722101    -0.15000
C1687       C  0.46598246  0.24926071  0.54429689     0.35600
C1688       C  0.46513161  0.26354175  0.57432894    -0.26400
C1689       C  0.49704511  0.28037905  0.58743181    -0.15700
C1690       C  0.53037449  0.28347103  0.56988130     0.36700
N1691       N  0.56376174  0.29985521  0.58267314    -0.89900
H1692       H  0.55732980  0.27105415  0.52720283     0.17800
H1693       H  0.43942466  0.26131711  0.58767893     0.17800
N1694       N  0.43291133  0.23216933  0.53162119    -0.88900
H1695       H  0.58560729  0.30061929  0.56658484     0.35200
H1696       H  0.57272437  0.28205404  0.60024167     0.40300
H1697       H  0.42468973  0.22910085  0.02233207     0.39900
H1698       H  0.41105903  0.23155122  0.54773771     0.34800
C1699       C  0.49253096  0.18546386  0.81643064    -0.27000
C1700       C  0.47868933  0.21074881  0.83847690    -0.15000
C1701       C  0.46786289  0.24735995  0.82914929     0.35600
C1702       C  0.47483858  0.25906169  0.79900577    -0.26400
C1703       C  0.49131492  0.23476162  0.77768410    -0.15700
C1704       C  0.49899366  0.19717706  0.78604366     0.36700
N1705       N  0.51518695  0.17174089  0.76414126    -0.89900
H1706       H  0.50065832  0.15731557  0.82332417     0.17800
H1707       H  0.46800669  0.28758698  0.79219042     0.17800
N1708       N  0.45061442  0.27285516  0.85051589    -0.88900
H1709       H  0.51931158  0.14518593  0.77393249     0.35200
H1710       H  0.54185242  0.18206198  0.75837800     0.40300
H1711       H  0.42471145  0.26128552  0.85702646     0.39900
H1712       H  0.44477775  0.29872779  0.84009644     0.34800
C1713       C  0.84025150  0.87461526  0.87811788    -0.27000
C1714       C  0.83733684  0.89832567  0.85263274    -0.15000
C1715       C  0.85967802  0.89091893  0.82650562     0.35600
C1716       C  0.88727635  0.86239392  0.82756800    -0.26400
C1717       C  0.89326962  0.84186720  0.85449420    -0.15700
C1718       C  0.86848522  0.84692628  0.87940963     0.36700
N1719       N  0.87378934  0.82576979  0.90692051    -0.89900
H1720       H  0.82345727  0.88027962  0.89834739     0.17800
H1721       H  0.90652775  0.85881625  0.80848732     0.17800
N1722       N  0.85611574  0.91440872  0.79990345    -0.88900
H1723       H  0.84875650  0.81139146  0.91176509     0.35200
H1724       H  0.87866603  0.84472511  0.92468451     0.40300
H1725       H  0.82900761  0.91049594  0.79130415     0.39900
H1726       H  0.87489290  0.90578094  0.78280640     0.34800
C1727       C  0.61197535  0.09106856  0.87701587    -0.27000
C1728       C  0.61661419  0.12564572  0.89184937    -0.15000
C1729       C  0.65304777  0.14056047  0.89554583     0.35600
C1730       C  0.68432750  0.11964584  0.88557139    -0.26400
C1731       C  0.67998994  0.08388941  0.87222442    -0.15700
C1732       C  0.64326163  0.06998195  0.86736069     0.36700
N1733       N  0.63745256  0.03440029  0.85284164    -0.89900
H1734       H  0.58397843  0.07949139  0.87416954     0.17800
H1735       H  0.71227246  0.13098633  0.88902029     0.17800
N1736       N  0.65808157  0.17664538  0.90979156    -0.88900
H1737       H  0.62080767  0.03884631  0.83357136     0.35200
H1738       H  0.62239661  0.01712668  0.86793860     0.40300
H1739       H  0.64546648  0.19686682  0.89581796     0.39900
H1740       H  0.68667604  0.18356553  0.91087642     0.34800
C1741       C  0.60144076  0.83911081  0.62411807    -0.27000
C1742       C  0.57582029  0.83979671  0.59984193    -0.15000
C1743       C  0.58145261  0.86537612  0.57564520     0.35600
C1744       C  0.60957122  0.89274653  0.57779194    -0.26400
C1745       C  0.63175181  0.89552191  0.60403834    -0.15700
C1746       C  0.62923858  0.86730878  0.62671128     0.36700
N1747       N  0.65246690  0.86927602  0.65340483    -0.89900
H1748       H  0.59701727  0.81942634  0.64274539     0.17800
H1749       H  0.61164123  0.91418122  0.56017685     0.17800
N1750       N  0.55668233  0.86538519  0.54993666    -0.88900
H1751       H  0.64704683  0.84638808  0.66785018     0.35200
H1752       H  0.64481805  0.89343414  0.66553897     0.40300
H1753       H  0.57298972  0.86190961  0.53018669     0.39900
H1754       H  0.54361374  0.89173491  0.54871162     0.34800
C1755       C  0.57962005  0.17930609  0.63567167    -0.27000
C1756       C  0.57925263  0.18683940  0.66703509    -0.15000
C1757       C  0.60051009  0.16361044  0.68669719     0.35600
C1758       C  0.61935523  0.13188724  0.67492605    -0.26400
C1759       C  0.61877957  0.12381024  0.64357205    -0.15700
C1760       C  0.59961862  0.14867882  0.62374104     0.36700
N1761       N  0.59970261  0.14276536  0.59140747    -0.89900
H1762       H  0.56442918  0.19752291  0.62013232     0.17800
H1763       H  0.63463541  0.11363896  0.69036429     0.17800
N1764       N  0.60258803  0.17163706  0.71864823    -0.88900
H1765       H  0.61181774  0.16641107  0.58100927     0.35200
H1766       H  0.57177025  0.14121174  0.58425768     0.40300
H1767       H  0.63092137  0.17553576  0.72416058     0.39900
H1768       H  0.59283998  0.14803927  0.73063275     0.34800
C1769       C  0.55518714  0.07050156  0.55300757    -0.27000
C1770       C  0.58198525  0.04386849  0.54355226    -0.15000
C1771       C  0.58431026  0.03431968  0.51226902     0.35600
C1772       C  0.56459354  0.05583186  0.49085514    -0.26400
C1773       C  0.54331803  0.08780401  0.99908612    -0.15700
C1774       C  0.53614455  0.09271634  0.53153090     0.36700
N1775       N  0.50607500  0.11743976  0.04022775    -0.89900
H1776       H  0.55196282  0.07671535  0.57708486     0.17800
H1777       H  0.56905727  0.05034755  0.46677198     0.17800
N1778       N  0.60704645  0.00366180  0.50157297    -0.88900
H1779       H  0.50330542  0.11692501  0.06400906     0.35200
H1780       H  0.48036309  0.10828029  0.03147021     0.40300
H1781       H  0.59922813  0.97939108  0.51360124     0.39900
H1782       H  0.63537393  0.00931489  0.50579095     0.34800
C1783       C  0.77880560  0.00589605  0.00853766    -0.27000
C1784       C  0.74374164  0.98795646  0.51880736    -0.15000
C1785       C  0.72792006  0.96109413  0.49899049     0.35600
C1786       C  0.73515735  0.96827556  0.96559895    -0.26400
C1787       C  0.76921506  0.98519268  0.95634875    -0.15700
C1788       C  0.79193023  0.00290752  0.97852742     0.36700
N1789       N  0.82719626  0.02026630  0.97104041    -0.89900
H1790       H  0.79540786  0.02134832  0.02499457     0.17800
H1791       H  0.71778162  0.95436055  0.94879661     0.17800
N1792       N  0.69758212  0.93739886  0.50935052    -0.88900
H1793       H  0.82254113  0.04111709  0.95467356     0.35200
H1794       H  0.84530412  0.99984548  0.96208464     0.40300
H1795       H  0.70844878  0.91907865  0.52579566     0.39900
H1796       H  0.68793682  0.92049281  0.49152923     0.34800
C1797       C  0.68214724  0.01096910  0.72792689    -0.27000
C1798       C  0.70055842  0.98591343  0.70816703    -0.15000
C1799       C  0.73015916  0.96344964  0.71939308     0.35600
C1800       C  0.74221486  0.96779244  0.74964369    -0.26400
C1801       C  0.72576272  0.99499457  0.76860562    -0.15700
C1802       C  0.69479402  0.01599065  0.75791960     0.36700
N1803       N  0.67642186  0.04275347  0.77738382    -0.89900
H1804       H  0.65930972  0.02832145  0.71955343     0.17800
H1805       H  0.76579702  0.95128936  0.75777167     0.17800
N1806       N  0.74839497  0.93661327  0.69994647    -0.88900
H1807       H  0.64802095  0.03525071  0.77913567     0.35200
H1808       H  0.67795085  0.06917385  0.76686365     0.40300
H1809       H  0.77703806  0.94335448  0.69884134     0.39900
H1810       H  0.74579373  0.91006528  0.71010096     0.34800
C1811       C  0.07715426  0.36528957  0.96315826    -0.27000
C1812       C  0.07555519  0.34035053  0.93843414    -0.15000
C1813       C  0.10445356  0.34097841  0.91619961     0.35600
C1814       C  0.13177480  0.36989036  0.91712028    -0.26400
C1815       C  0.12993408  0.39789771  0.93969891    -0.15700
C1816       C  0.10374922  0.39424232  0.96376399     0.36700
N1817       N  0.10228148  0.42178464  0.98761843    -0.89900
H1818       H  0.05514186  0.36477123  0.98044916     0.17800
H1819       H  0.15191866  0.37277946  0.89856905     0.17800
N1820       N  0.10358751  0.31488327  0.89121466    -0.88900
H1821       H  0.10543610  0.40785193  0.00848849     0.35200
H1822       H  0.07562187  0.43429682  0.98744689     0.40300
H1823       H  0.10756867  0.28793810  0.90026926     0.39900
H1824       H  0.12617001  0.31984556  0.87628334     0.34800
C1825       C  0.85521114  0.19133632  0.90548137    -0.27000
C1826       C  0.88880985  0.18660510  0.92186025    -0.15000
C1827       C  0.90112093  0.14980268  0.92877585     0.35600
C1828       C  0.88094525  0.11868225  0.91794922    -0.26400
C1829       C  0.84868031  0.12347860  0.90008038    -0.15700
C1830       C  0.83505814  0.16014961  0.89447524     0.36700
N1831       N  0.80093691  0.16553650  0.87754250    -0.89900
H1832       H  0.84514722  0.21947303  0.90050547     0.17800
H1833       H  0.89144461  0.09060924  0.92258874     0.17800
N1834       N  0.93405951  0.14378393  0.94682777    -0.88900
H1835       H  0.79480088  0.19420762  0.87536572     0.35200
H1836       H  0.77896370  0.15367352  0.89033035     0.40300
H1837       H  0.95320254  0.12801956  0.93390746     0.39900
H1838       H  0.92630961  0.12776397  0.96591565     0.34800
C1839       C  0.07891365  0.10788688  0.71366934    -0.27000
C1840       C  0.07687313  0.13320600  0.68912674    -0.15000
C1841       C  0.10549975  0.13292698  0.66657861     0.35600
C1842       C  0.13351281  0.10467268  0.66754426    -0.26400
C1843       C  0.13228340  0.07640587  0.69002915    -0.15700
C1844       C  0.10598175  0.07923829  0.71417256     0.36700
N1845       N  0.10483724  0.05086727  0.73765851    -0.89900
H1846       H  0.05694274  0.10819110  0.73098246     0.17800
H1847       H  0.15358219  0.10224908  0.64890981     0.17800
N1848       N  0.10413347  0.15900729  0.64146203    -0.88900
H1849       H  0.08311649  0.05626747  0.75325035     0.35200
H1850       H  0.13002550  0.05265209  0.74977013     0.40300
H1851       H  0.08012880  0.15285358  0.62867691     0.39900
H1852       H  0.12722270  0.15504523  0.62691022     0.34800
C1853       C  0.82277329  0.07245833  0.60992728    -0.27000
C1854       C  0.78771745  0.07933340  0.62373504    -0.15000
C1855       C  0.78453790  0.10770656  0.64598027     0.35600
C1856       C  0.81660088  0.12756580  0.65500971    -0.26400
C1857       C  0.85209133  0.12005473  0.64202497    -0.15700
C1858       C  0.85503948  0.09275653  0.61860227     0.36700
N1859       N  0.89069204  0.08502340  0.60419796    -0.89900
H1860       H  0.82495375  0.05116969  0.59232005     0.17800
H1861       H  0.81374274  0.14859373  0.67276646     0.17800
N1862       N  0.74896126  0.11559480  0.66022617    -0.88900
H1863       H  0.88754409  0.06530203  0.58670177     0.35200
H1864       H  0.90799231  0.07248463  0.62051886     0.40300
H1865       H  0.74264567  0.14397799  0.65651122     0.39900
H1866       H  0.75172566  0.11141432  0.68374890     0.34800
C1867       C  0.88398169  0.03603765  0.76345705    -0.27000
C1868       C  0.88920910  0.04731051  0.79379855    -0.15000
C1869       C  0.91884963  0.07232136  0.80089953     0.35600
C1870       C  0.93881052  0.08949188  0.77721628    -0.26400
C1871       C  0.92912162  0.08288413  0.74673150    -0.15700
C1872       C  0.90378060  0.05365339  0.73962553     0.36700
N1873       N  0.89504910  0.04505075  0.70840380    -0.89900
H1874       H  0.86191939  0.01603163  0.75816872     0.17800
H1875       H  0.95897912  0.11135266  0.78268802     0.17800
N1876       N  0.92663539  0.08401606  0.83150733    -0.88900
H1877       H  0.87425333  0.02425754  0.70728112     0.35200
H1878       H  0.91926325  0.03353775  0.69845455     0.40300
H1879       H  0.93342404  0.06019994  0.84448678     0.39900
H1880       H  0.90267965  0.09676471  0.84072126     0.34800
C1881       C  0.96452667  0.18541807  0.56540848    -0.27000
C1882       C  0.99029099  0.20322437  0.58461694    -0.15000
C1883       C  0.01321541  0.23232531  0.57297795     0.35600
C1884       C  0.00859797  0.24460043  0.54271940    -0.26400
C1885       C  0.98065488  0.22879055  0.52425113    -0.15700
C1886       C  0.95919743  0.19824051  0.53549145     0.36700
N1887       N  0.93164693  0.18038230  0.51670984    -0.89900
H1888       H  0.94681643  0.16294028  0.57420023     0.17800
H1889       H  0.02548562  0.26783562  0.53422181     0.17800
N1890       N  0.04077815  0.24976421  0.59200557    -0.88900
H1891       H  0.90545677  0.18274565  0.52758975     0.35200
H1892       H  0.93216168  0.15739758  0.01842348     0.40300
H1893       H  0.03477460  0.27854873  0.59308817     0.39900
H1894       H  0.06710656  0.24656454  0.58151685     0.34800
C1895       C  0.00083781  0.22441157  0.79423279    -0.27000
C1896       C  0.97773500  0.24394382  0.77379165    -0.15000
C1897       C  0.95888602  0.27680110  0.78370372     0.35600
C1898       C  0.96284244  0.28892301  0.81410951    -0.26400
C1899       C  0.98425110  0.26818454  0.83507544    -0.15700
C1900       C  0.00373838  0.23586524  0.82483820     0.36700
N1901       N  0.02615270  0.21429845  0.84556372    -0.89900
H1902       H  0.01519401  0.19906259  0.78683628     0.08200
H1903       H  0.94758074  0.31356850  0.82186551     0.17800
N1904       N  0.93514791  0.29723556  0.76299008    -0.88900
H1905       H  0.05366332  0.21334440  0.83694756     0.35200
H1906       H  0.01562646  0.18680259  0.84604029     0.40300
H1907       H  0.95226323  0.30786961  0.74549300     0.39900
H1908       H  0.92296366  0.32046485  0.77387912     0.34800
C1909       C  0.83627380  0.61112241  0.62170284    -0.27000
C1910       C  0.83517946  0.58588552  0.59713892    -0.15000
C1911       C  0.85910971  0.59188949  0.57185287     0.35600
C1912       C  0.88649241  0.62055100  0.57290648    -0.26400
C1913       C  0.89055030  0.64270389  0.59918709    -0.15700
C1914       C  0.86379953  0.63952505  0.62297204     0.36700
N1915       N  0.86694923  0.66298844  0.64952818    -0.89900
H1916       H  0.81803843  0.60630278  0.64127445     0.17800
H1917       H  0.90721256  0.62257055  0.55468882     0.17800
N1918       N  0.85825365  0.56647160  0.54653709    -0.88900
H1919       H  0.84560212  0.65670524  0.66527947     0.35200
H1920       H  0.86261391  0.69082396  0.64253118     0.40300
H1921       H  0.88475189  0.55383383  0.54452061     0.39900
H1922       H  0.85351406  0.58222154  0.52675208     0.34800
C1923       C  0.68650390  0.36277772  0.62805122    -0.27000
C1924       C  0.68730617  0.40224513  0.63172039    -0.15000
C1925       C  0.65882764  0.41949506  0.64934258     0.35600
C1926       C  0.62972164  0.39763733  0.66165413    -0.26400
C1927       C  0.62814215  0.35847636  0.65721601    -0.15700
C1928       C  0.65753150  0.34076961  0.64083125     0.36700
N1929       N  0.65827223  0.30090325  0.63611665    -0.89900
H1930       H  0.70860391  0.34880438  0.61521062     0.17800
H1931       H  0.60780101  0.41171155  0.67464404     0.17800
N1932       N  0.65874619  0.45931430  0.65446163    -0.88900
H1933       H  0.63343402  0.29297714  0.62525636     0.35200
H1934       H  0.65934424  0.28760677  0.65741850     0.40300
H1935       H  0.65907317  0.46384577  0.67803485     0.39900
H1936       H  0.63359196  0.47031060  0.64595272     0.34800
C1937       C  0.90663539  0.32547980  0.67349249    -0.27000
C1938       C  0.89193560  0.28985844  0.66670975    -0.15000
C1939       C  0.85676414  0.28740976  0.65166001     0.35600
C1940       C  0.83822497  0.32058553  0.64269325    -0.26400
C1941       C  0.85406660  0.35613457  0.64805733    -0.15700
C1942       C  0.88801630  0.35843499  0.66460239     0.36700
N1943       N  0.90384060  0.39418261  0.67251819    -0.89900
H1944       H  0.93286180  0.32791490  0.68583843     0.17800
H1945       H  0.81206531  0.31851303  0.63022586     0.17800
N1946       N  0.84037342  0.25141654  0.64472056    -0.88900
H1947       H  0.93096191  0.39572673  0.66315773     0.35200
H1948       H  0.90614743  0.39534996  0.69628721     0.40300
H1949       H  0.85779085  0.23830790  0.62859694     0.39900
H1950       H  0.81410959  0.25470398  0.63441901     0.34800
C1951       C  0.92564998  0.41093294  0.55223240    -0.27000
C1952       C  0.89857293  0.43807520  0.54473469    -0.15000
C1953       C  0.89115231  0.44564946  0.51382512     0.35600
C1954       C  0.91663096  0.42650932  0.99142364    -0.26400
C1955       C  0.93750654  0.39443386  0.99934252    -0.15700
C1956       C  0.94134036  0.38772322  0.52963451     0.36700
N1957       N  0.96666890  0.35814300  0.53809259    -0.89900
H1958       H  0.93124783  0.40468777  0.57601902     0.17800
H1959       H  0.90948360  0.43172194  0.96777357     0.17800
N1960       N  0.86403094  0.47376383  0.50579241    -0.88900
H1961       H  0.95290708  0.34063112  0.55382500     0.35200
H1962       H  0.98974815  0.37030853  0.54899821     0.40300
H1963       H  0.84228106  0.46070922  0.49380263     0.39900
H1964       H  0.87713887  0.49304338  0.49111289     0.34800
C1965       C  0.61390105  0.58709557  0.82302598    -0.27000
C1966       C  0.63860810  0.58591862  0.84781543    -0.15000
C1967       C  0.63594525  0.61386612  0.87049214     0.35600
C1968       C  0.60642797  0.64027290  0.86970021    -0.26400
C1969       C  0.57874658  0.63811158  0.84710849    -0.15700
C1970       C  0.58375174  0.61270201  0.82268145     0.36700
N1971       N  0.55671735  0.61117510  0.79857649    -0.89900
H1972       H  0.61545583  0.56547762  0.80562544     0.17800
H1973       H  0.60287516  0.65962357  0.88859076     0.17800
N1974       N  0.66140577  0.61346998  0.89569210    -0.88900
H1975       H  0.54525558  0.58404811  0.79811994     0.35200
H1976       H  0.57093787  0.61568315  0.77791623     0.40300
H1977       H  0.64562975  0.61027160  0.91577309     0.39900
H1978       H  0.67481629  0.63964993  0.89647597     0.34800
C1979       C  0.58056686  0.35399481  0.88857787    -0.27000
C1980       C  0.62010741  0.35523041  0.88995405    -0.15000
C1981       C  0.63945364  0.32463851  0.90295774     0.35600
C1982       C  0.61889385  0.29387815  0.91478456    -0.26400
C1983       C  0.57915631  0.29312029  0.91382954    -0.15700
C1984       C  0.56011051  0.32341414  0.90005925     0.36700
N1985       N  0.51998424  0.32298165  0.89689340    -0.89900
H1986       H  0.56512305  0.37690856  0.87814765     0.17800
H1987       H  0.63412916  0.27072249  0.92507654     0.17800
N1988       N  0.67968491  0.32505566  0.90492052    -0.88900
H1989       H  0.51371629  0.32498641  0.87365291     0.35200
H1990       H  0.50909400  0.34682051  0.90777348     0.40300
H1991       H  0.69001919  0.30133202  0.89355369     0.39900
H1992       H  0.68698359  0.32271982  0.92794307     0.34800
C1993       C  0.54911715  0.41437927  0.80437381    -0.27000
C1994       C  0.57522248  0.44205175  0.79540849    -0.15000
C1995       C  0.57866169  0.45127703  0.76405377     0.35600
C1996       C  0.55857066  0.43022874  0.74241963    -0.26400
C1997       C  0.53617519  0.39945191  0.75128512    -0.15700
C1998       C  0.53042533  0.39242722  0.78270564     0.36700
N1999       N  0.50866891  0.36091167  0.79315836    -0.89900
H2000       H  0.54691323  0.40646697  0.82823459     0.17800
H2001       H  0.56392070  0.43526417  0.71836046     0.17800
N2002       N  0.60505535  0.47903649  0.75318745    -0.88900
H2003       H  0.52119940  0.33625337  0.78507311     0.35200
H2004       H  0.48171352  0.36302214  0.78386424     0.40300
H2005       H  0.61806678  0.49284645  0.77131057     0.39900
H2006       H  0.58975728  0.49960687  0.74153814     0.34800
C2007       C  0.81009690  0.38099285  0.85707316    -0.27000
C2008       C  0.78890781  0.40346019  0.87722190    -0.15000
C2009       C  0.79742511  0.40270381  0.90862852     0.35600
C2010       C  0.82726140  0.38043305  0.91914586    -0.26400
C2011       C  0.84929635  0.35893056  0.89890313    -0.15700
C2012       C  0.84031297  0.35903965  0.86758624     0.36700
N2013       N  0.86146028  0.33660172  0.84643631    -0.89900
H2014       H  0.80357502  0.38087827  0.83294157     0.17800
H2015       H  0.83372110  0.38072124  0.94329580     0.17800
N2016       N  0.77544519  0.42396476  0.93005814    -0.88900
H2017       H  0.87273925  0.35447463  0.82971778     0.35200
H2018       H  0.84287836  0.31805712  0.83576773     0.40300
H2019       H  0.79346612  0.44224965  0.94160648     0.39900
H2020       H  0.76387138  0.40527595  0.94604956     0.34800
C2021       C  0.73264804  0.50897823  0.96316989    -0.27000
C2022       C  0.70331083  0.48481666  0.95396322    -0.15000
C2023       C  0.69138861  0.45614306  0.97440778     0.35600
C2024       C  0.70892666  0.45201223  0.00287098    -0.26400
C2025       C  0.73585738  0.47212527  0.51233696    -0.15700
C2026       C  0.74064957  0.50580459  0.49567258     0.36700
N2027       N  0.76149419  0.53644067  0.50869484    -0.89900
H2028       H  0.74231278  0.53099520  0.94786009     0.17800
H2029       H  0.71210763  0.41633818  0.51194539     0.17800
N2030       N  0.66196879  0.43053124  0.96629476    -0.88900
H2031       H  0.76244833  0.55926189  0.49359119     0.35200
H2032       H  0.78928331  0.52741035  0.51152188     0.40300
H2033       H  0.64061469  0.43248219  0.98277058     0.39900
H2034       H  0.67285242  0.40319345  0.96695994     0.34800
C2035       C  0.72554891  0.50595666  0.74267069    -0.27000
C2036       C  0.74369917  0.48289511  0.76397544    -0.15000
C2037       C  0.77738470  0.46457093  0.75548779     0.35600
C2038       C  0.79176624  0.46884002  0.72579953    -0.26400
C2039       C  0.77317655  0.49103163  0.70384496    -0.15700
C2040       C  0.74000464  0.51040282  0.71284714     0.36700
N2041       N  0.72031346  0.53399446  0.69174626    -0.89900
H2042       H  0.69960201  0.52006619  0.74903413     0.17800
H2043       H  0.81711847  0.45358740  0.71967042     0.17800
N2044       N  0.79667392  0.44011767  0.77622307    -0.88900
H2045       H  0.71896847  0.56108853  0.70093905     0.35200
H2046       H  0.69277609  0.52389446  0.68981415     0.40300
H2047       H  0.77818702  0.41868152  0.78293977     0.39900
H2048       H  0.80400245  0.45560041  0.79555802     0.34800
loop_ 
_geom_bond_atom_site_label_1 
_geom_bond_atom_site_label_2 
_geom_bond_distance 
_geom_bond_site_symmetry_2 
_ccdc_geom_bond_type 
O1          Cr19   2.026       .  S
O1            C9   1.273       .  A
O2          Cr19   1.974       .  S
O2            C3   1.261       .  A
C3            O4   1.266       .  A
C3          C984   1.484       .  S
O4          Cr20   2.009       .  S
O5          Cr20   2.003       .  S
O5            C6   1.262       .  A
C6            O7   1.257       .  A
C6          C956   1.491       .  S
O7          Cr21   1.987       .  S
O8          Cr21   1.983       .  S
O8            C9   1.265       .  A
C9          C998   1.495       .  S
O10         Cr19   2.009       .  S
O10          C18   1.262       .  A
O11         Cr19   2.011       .  S
O11          C12   1.264       .  A
C12          O13   1.258       .  A
C12        C1012   1.477       .  S
O13         Cr20   1.979       .  S
O14         Cr20   1.997       .  S
O14          C15   1.269       .  A
C15          O16   1.268       .  A
C15         C970   1.469       .  S
O16         Cr21   1.994       .  S
O17         Cr21   1.992       .  S
O17          C18   1.258       .  A
C18         C942   1.477       .  S
Cr19         O22   1.776       .  S
Cr20         O22   1.771       .  S
Cr21         O22   1.773       .  S
O23         Cr41   1.985       .  S
O23          C31   1.262       .  A
O24         Cr41   2.010       .  S
O24          C25   1.266       .  A
C25          O26   1.263       .  A
C25        C1015   1.492       .  S
O26         Cr42   1.984       .  S
O27         Cr42   1.992       .  S
O27          C28   1.261       .  A
C28          O29   1.262       .  A
C28         C917   1.484       .  S
O29         Cr43   1.989       .  S
O30         Cr43   2.002       .  S
O30          C31   1.263       .  A
C31         C900   1.487       .  S
O32         Cr41   2.013       .  S
O32          C40   1.266       .  A
O33         Cr41   1.999       .  S
O33          C34   1.263       .  A
C34          O35   1.264       .  A
C34         C886   1.474       .  S
O35         Cr42   1.999       .  S
O36         Cr42   1.993       .  S
O36          C37   1.265       .  A
C37          O38   1.265       .  A
C37         C928   1.464       .  S
O38         Cr43   1.990       .  S
O39         Cr43   1.985       .  S
O39          C40   1.260       .  A
C40        C1001   1.477       .  S
Cr41         O44   1.772       .  S
Cr42         O44   1.771       .  S
Cr43         O44   1.769       .  S
O45         Cr63   1.965       .  S
O45          C53   1.258       .  A
O46         Cr63   2.031       .  S
O46          C47   1.276       .  A
C47          O48   1.259       .  A
C47         C914   1.482       .  S
O48         Cr64   1.960       .  S
O49         Cr64   1.999       .  S
O49          C50   1.262       .  A
C50          O51   1.257       .  A
C50         C833   1.481       .  S
O51         Cr65   1.976       .  S
O52         Cr65   2.012       .  S
O52          C53   1.267       .  A
C53         C858   1.472       .  S
O54         Cr63   2.028   1_455  S
O54          C62   1.268       .  A
O55         Cr63   1.992       .  S
O55          C56   1.260       .  A
C56          O57   1.260       .  A
C56         C872   1.477       .  S
O57         Cr64   2.001       .  S
O58         Cr64   1.970       .  S
O58          C59   1.262       .  A
C59          O60   1.268       .  A
C59         C847   1.471       .  S
O60         Cr65   2.013       .  S
O61         Cr65   1.955   1_455  S
O61          C62   1.255       .  A
C62         C816   1.474       .  S
Cr63         O66   1.773       .  S
Cr64         O66   1.766       .  S
Cr65         O66   1.766       .  S
O67         Cr85   2.034       .  S
O67          C75   1.275       .  A
O68         Cr85   1.965       .  S
O68          C69   1.258       .  A
C69          O70   1.268       .  A
C69         C875   1.477       .  S
O70         Cr86   2.012       .  S
O71         Cr86   1.981       .  S
O71          C72   1.256       .  A
C72          O73   1.264       .  A
C72         C987   1.481       .  S
O73         Cr87   2.011       .  S
O74         Cr87   1.967       .  S
O74          C75   1.263       .  A
C75         C802   1.484       .  S
O76         Cr85   1.986       .  S
O76          C84   1.259       .  A
O77         Cr85   2.031   1_455  S
O77          C78   1.269       .  A
C78          O79   1.256       .  A
C78         C788   1.479       .  S
O79         Cr86   1.962   1_455  S
O80         Cr86   2.027       .  S
O80          C81   1.271       .  A
C81          O82   1.263       .  A
C81         C931   1.480       .  S
O82         Cr87   1.972       .  S
O83         Cr87   2.005       .  S
O83          C84   1.262       .  A
C84        C1885   1.476       .  S
Cr85         O88   1.774       .  S
Cr86         O88   1.768       .  S
Cr87         O88   1.765       .  S
O89        Cr107   2.027   1_545  S
O89          C97   1.272       .  A
O90        Cr107   1.959       .  S
O90          C91   1.257       .  A
C91          O92   1.271       .  A
C91         C774   1.486       .  S
O92        Cr108   2.025   1_565  S
O93        Cr108   1.986       .  S
O93          C94   1.259       .  A
C94          O95   1.262       .  A
C94         C735   1.481       .  S
O95        Cr109   2.005       .  S
O96        Cr109   1.959       .  S
O96          C97   1.261       .  A
C97         C830   1.470       .  S
O98        Cr107   1.982       .  S
O98         C106   1.256   1_565  A
O99        Cr107   2.019       .  S
O99         C100   1.265       .  A
C100        O101   1.256       .  A
C100        C721   1.474       .  S
O101       Cr108   1.964   1_565  S
O102       Cr108   2.022       .  S
O102        C103   1.272       .  A
C103        O104   1.260       .  A
C103        C746   1.476       .  S
O104       Cr109   1.961       .  S
O105       Cr109   2.003       .  S
O105        C106   1.261       .  A
C106        C760   1.468   1_545  S
Cr107       O110   1.771   1_565  S
Cr108       O110   1.765       .  S
Cr109       O110   1.763       .  S
O111       Cr129   1.970       .  S
O111        C119   1.260       .  A
O112       Cr129   2.038   1_545  S
O112        C113   1.275       .  A
C113        O114   1.261       .  A
C113        C707   1.485       .  S
O114       Cr130   1.960       .  S
O115       Cr130   2.003       .  S
O115        C116   1.262       .  A
C116        O117   1.258       .  A
C116        C805   1.481       .  S
O117       Cr131   1.976       .  S
O118       Cr131   2.019   1_565  S
O118        C119   1.270       .  A
C119        C763   1.482       .  S
O120       Cr129   2.035       .  S
O120        C128   1.269       .  A
O121       Cr129   1.996       .  S
O121        C122   1.261       .  A
C122        O123   1.261   1_565  A
C122        C777   1.475       .  S
O123       Cr130   2.003       .  S
O124       Cr130   1.964       .  S
O124        C125   1.262       .  A
C125        O126   1.268       .  A
C125        C844   1.476       .  S
O126       Cr131   2.014       .  S
O127       Cr131   1.959   1_565  S
O127        C128   1.253       .  A
C128        C690   1.479       .  S
Cr129       O132   1.776   1_565  S
Cr130       O132   1.764       .  S
Cr131       O132   1.770       .  S
O133       Cr151   2.030       .  S
O133        C141   1.275       .  A
O134       Cr151   1.953       .  S
O134        C135   1.256       .  A
C135        O136   1.272       .  A
C135        C676   1.494       .  S
O136       Cr152   2.030       .  S
O137       Cr152   1.986       .  S
O137        C138   1.258       .  A
C138        O139   1.259       .  A
C138        C704   1.481       .  S
O139       Cr153   1.993       .  S
O140       Cr153   1.970       .  S
O140        C141   1.263       .  A
C141        C959   1.493       .  S
O142       Cr151   1.993       .  S
O142        C150   1.258       .  A
O143       Cr151   2.023       .  S
O143        C144   1.267       .  A
C144        O145   1.256       .  A
C144        C648   1.481       .  S
O145       Cr152   1.966       .  S
O146       Cr152   2.026       .  S
O146        C147   1.273       .  A
C147        O148   1.264       .  A
C147        C749   1.477       .  S
O148       Cr153   1.967       .  S
O149       Cr153   1.995       .  S
O149        C150   1.260       .  A
C150       C1686   1.491       .  S
Cr151       O154   1.773       .  S
Cr152       O154   1.774       .  S
Cr153       O154   1.765       .  S
O155       Cr173   2.010       .  S
O155        C163   1.266       .  A
O156       Cr173   1.972       .  S
O156        C157   1.262       .  A
C157        O158   1.267       .  A
C157        C732   1.483       .  S
O158       Cr174   2.010       .  S
O159       Cr174   1.996       .  S
O159        C160   1.261       .  A
C160        O161   1.260       .  A
C160        C903   1.474       .  S
O161       Cr175   1.994       .  S
O162       Cr175   1.987       .  S
O162        C163   1.264       .  A
C163        C665   1.495       .  S
O164       Cr173   1.995       .  S
O164        C172   1.263       .  A
O165       Cr173   2.014       .  S
O165        C166   1.262       .  A
C166        O167   1.259       .  A
C166        C679   1.480       .  S
O167       Cr174   1.982       .  S
O168       Cr174   1.996       .  S
O168        C169   1.266       .  A
C169        O170   1.265       .  A
C169        C973   1.472       .  S
O170       Cr175   1.993       .  S
O171       Cr175   1.996       .  S
O171        C172   1.262       .  A
C172        C634   1.469       .  S
Cr173       O176   1.777       .  S
Cr174       O176   1.770       .  S
Cr175       O176   1.773       .  S
O177       Cr195   2.028       .  S
O177        C185   1.273       .  A
O178       Cr195   1.956       .  S
O178        C179   1.259       .  A
C179        O180   1.268       .  A
C179        C595   1.492       .  S
O180       Cr196   2.020       .  S
O181       Cr196   1.983       .  S
O181        C182   1.257       .  A
C182        O183   1.262       .  A
C182        C564   1.492       .  S
O183       Cr197   2.008       .  S
O184       Cr197   1.977       .  S
O184        C185   1.264       .  A
C185        C620   1.484       .  S
O186       Cr195   1.994   1_545  S
O186        C194   1.259   1_545  A
O187       Cr195   2.022   1_545  S
O187        C188   1.265       .  A
C188        O189   1.256       .  A
C188        C819   1.476       .  S
O189       Cr196   1.964   1_545  S
O190       Cr196   2.016       .  S
O190        C191   1.271       .  A
C191        O192   1.264       .  A
C191        C581   1.475       .  S
O192       Cr197   1.971       .  S
O193       Cr197   2.004       .  S
O193        C194   1.263       .  A
C194        C606   1.484       .  S
Cr195       O198   1.772       .  S
Cr196       O198   1.771       .  S
Cr197       O198   1.766       .  S
O199       Cr217   2.016   1_545  S
O199        C207   1.269   1_545  A
O200       Cr217   1.983       .  S
O200        C201   1.260       .  A
C201        O202   1.263       .  A
C201        C522   1.492       .  S
O202       Cr218   1.998       .  S
O203       Cr218   1.990       .  S
O203        C204   1.263       .  A
C204        O205   1.260       .  A
C204        C536   1.487       .  S
O205       Cr219   1.991       .  S
O206       Cr219   1.975       .  S
O206        C207   1.262       .  A
C207        C609   1.494       .  S
O208       Cr217   2.002   1_545  S
O208        C216   1.262       .  A
O209       Cr217   2.014       .  S
O209        C210   1.265       .  A
C210        O211   1.260       .  A
C210       C1616   1.477       .  S
O211       Cr218   1.972       .  S
O212       Cr218   1.987       .  S
O212        C213   1.265       .  A
C213        O214   1.268       .  A
C213        C550   1.472       .  S
O214       Cr219   2.005       .  S
O215       Cr219   1.992   1_545  S
O215        C216   1.260       .  A
C216        C651   1.472       .  S
Cr217       O220   1.778       .  S
Cr218       O220   1.765       .  S
Cr219       O220   1.772       .  S
O221       Cr239   2.028       .  S
O221        C229   1.275       .  A
O222       Cr239   1.971       .  S
O222        C223   1.261       .  A
C223        O224   1.267       .  A
C223        C508   1.480       .  S
O224       Cr240   2.011       .  S
O225       Cr240   1.980       .  S
O225        C226   1.260       .  A
C226        O227   1.263       .  A
C226        C469   1.485       .  S
O227       Cr241   2.010       .  S
O228       Cr241   1.963       .  S
O228        C229   1.260       .  A
C229        C539   1.485       .  S
O230       Cr239   2.000       .  S
O230        C238   1.262       .  A
O231       Cr239   2.024       .  S
O231        C232   1.266       .  A
C232        O233   1.255       .  A
C232        C945   1.477       .  S
O233       Cr240   1.967       .  S
O234       Cr240   1.996       .  S
O234        C235   1.265       .  A
C235        O236   1.262       .  A
C235        C480   1.466       .  S
O236       Cr241   1.966       .  S
O237       Cr241   2.009       .  S
O237        C238   1.262       .  A
C238        C497   1.483       .  S
Cr239       O242   1.773       .  S
Cr240       O242   1.771       .  S
Cr241       O242   1.768       .  S
O243       Cr261   1.968       .  S
O243        C251   1.259       .  A
O244       Cr261   2.032       .  S
O244        C245   1.274       .  A
C245        O246   1.261       .  A
C245        C452   1.480       .  S
O246       Cr262   1.964       .  S
O247       Cr262   2.009       .  S
O247        C248   1.263       .  A
C248        O249   1.258       .  A
C248        C623   1.490       .  S
O249       Cr263   1.979       .  S
O250       Cr263   2.031       .  S
O250        C251   1.273       .  A
C251        C494   1.491       .  S
O252       Cr261   2.028       .  S
O252        C260   1.267       .  A
O253       Cr261   1.995       .  S
O253        C254   1.261       .  A
C254        O255   1.263       .  A
C254        C511   1.481       .  S
O255       Cr262   2.007       .  S
O256       Cr262   1.965       .  S
O256        C257   1.261       .  A
C257        O258   1.274       .  A
C257        C553   1.489       .  S
O258       Cr263   2.037       .  S
O259       Cr263   1.957       .  S
O259        C260   1.255       .  A
C260        C718   1.474       .  S
Cr261       O264   1.775       .  S
Cr262       O264   1.764       .  S
Cr263       O264   1.768       .  S
O265       Cr283   2.008       .  S
O265        C273   1.266       .  A
O266       Cr283   1.986   1_455  S
O266        C267   1.261       .  A
C267        O268   1.264       .  A
C267        C567   1.480       .  S
O268       Cr284   2.005       .  S
O269       Cr284   1.988       .  S
O269        C270   1.262       .  A
C270        O271   1.261       .  A
C270        C399   1.488       .  S
O271       Cr285   1.987       .  S
O272       Cr285   1.995       .  S
O272        C273   1.264   1_455  A
C273        C427   1.495       .  S
O274       Cr283   2.000       .  S
O274        C282   1.262       .  A
O275       Cr283   2.010       .  S
O275        C276   1.264   1_655  A
C276        O277   1.259       .  A
C276        C438   1.474       .  S
O277       Cr284   1.981       .  S
O278       Cr284   1.989       .  S
O278        C279   1.264       .  A
C279        O280   1.268       .  A
C279        C413   1.470       .  S
O280       Cr285   2.002       .  S
O281       Cr285   1.996   1_655  S
O281        C282   1.263       .  A
C282        C889   1.473       .  S
Cr283       O286   1.774   1_655  S
Cr284       O286   1.768       .  S
Cr285       O286   1.773       .  S
O287       Cr305   1.974   1_455  S
O287        C295   1.261       .  A
O288       Cr305   2.018       .  S
O288        C289   1.269       .  A
C289        O290   1.263   1_655  A
C289        C441   1.473   1_655  S
O290       Cr306   1.979       .  S
O291       Cr306   1.989       .  S
O291        C292   1.256       .  A
C292        O293   1.258       .  A
C292        C525   1.470       .  S
O293       Cr307   1.996       .  S
O294       Cr307   1.999       .  S
O294        C295   1.265       .  A
C295        C385   1.473       .  S
O296       Cr305   2.009       .  S
O296        C304   1.264   1_655  A
O297       Cr305   2.004       .  S
O297        C298   1.262       .  A
C298        O299   1.260       .  A
C298        C693   1.478       .  S
O299       Cr306   2.000   1_655  S
O300       Cr306   1.986       .  S
O300        C301   1.266       .  A
C301        O302   1.268       .  A
C301        C578   1.461       .  S
O302       Cr307   1.993       .  S
O303       Cr307   1.988       .  S
O303        C304   1.260       .  A
C304        C424   1.485   1_455  S
Cr305       O308   1.777   1_655  S
Cr306       O308   1.779       .  S
Cr307       O308   1.771       .  S
O309       Cr327   2.024       .  S
O309        C317   1.273       .  A
O310       Cr327   1.975       .  S
O310        C311   1.259       .  A
C311        O312   1.266       .  A
C311        C368   1.482       .  S
O312       Cr328   2.009       .  S
O313       Cr328   1.983       .  S
O313        C314   1.260       .  A
C314        O315   1.261       .  A
C314        C455   1.482       .  S
O315       Cr329   1.999       .  S
O316       Cr329   1.958       .  S
O316        C317   1.261       .  A
C317        C396   1.490       .  S
O318       Cr327   1.999       .  S
O318        C326   1.260       .  A
O319       Cr327   2.023       .  S
O319        C320   1.268       .  A
C320        O321   1.255       .  A
C320        C637   1.474       .  S
O321       Cr328   1.959       .  S
O322       Cr328   2.000       .  S
O322        C323   1.265       .  A
C323        O324   1.263       .  A
C323        C483   1.464       .  S
O324       Cr329   1.969       .  S
O325       Cr329   2.002       .  S
O325        C326   1.260       .  A
C326        C354   1.487       .  S
Cr327       O330   1.774       .  S
Cr328       O330   1.772       .  S
Cr329       O330   1.767       .  S
O331       Cr349   1.962       .  S
O331        C339   1.258       .  A
O332       Cr349   2.031       .  S
O332        C333   1.274       .  A
C333        O334   1.263       .  A
C333        C466   1.492       .  S
O334       Cr350   1.972       .  S
O335       Cr350   2.006       .  S
O335        C336   1.261       .  A
C336        O337   1.254       .  A
C336        C382   1.471       .  S
O337       Cr351   1.968       .  S
O338       Cr351   2.024       .  S
O338        C339   1.272       .  A
C339        C357   1.482       .  S
O340       Cr349   2.030       .  S
O340        C348   1.267       .  A
O341       Cr349   1.989       .  S
O341        C342   1.260       .  A
C342        O343   1.262       .  A
C342       C1395   1.477       .  S
O343       Cr350   2.004       .  S
O344       Cr350   1.976       .  S
O344        C345   1.264       .  A
C345        O346   1.273       .  A
C345        C410   1.486       .  S
O346       Cr351   2.031       .  S
O347       Cr351   1.962       .  S
O347        C348   1.255       .  A
C348        C791   1.479       .  S
Cr349       O352   1.776       .  S
Cr350       O352   1.770       .  S
Cr351       O352   1.767       .  S
C353        C354   1.408       .  A
C353        C358   1.405       .  A
C353        H360   1.084       .  S
C354        C355   1.415       .  A
C355        C356   1.405       .  A
C355        N362   1.432       .  S
C356        C357   1.407       .  A
C356        H361   1.084       .  S
C357        C358   1.407       .  A
C358        N359   1.433       .  S
N359        H363   1.046       .  S
N359        H364   1.045       .  S
N362        H365   1.045       .  S
N362        H366   1.045       .  S
C367        C368   1.402       .  A
C367        C372   1.401       .  A
C367        H374   1.084       .  S
C368        C369   1.421       .  A
C369        C370   1.409       .  A
C369        N376   1.439       .  S
C370        C371   1.404       .  A
C370        H375   1.084       .  S
C371       C1366   1.484   1_554  S
C371        C372   1.411       .  A
C372        N373   1.433       .  S
N373        H377   1.046       .  S
N373        H378   1.045       .  S
N376        H379   1.042       .  S
N376        H380   1.047       .  S
C381        C382   1.402       .  A
C381        C386   1.396       .  A
C381        H388   1.084       .  S
C382        C383   1.410       .  A
C383        C384   1.408       .  A
C383        N390   1.438       .  S
C384        C385   1.405       .  A
C384        H389   1.084       .  S
C385        C386   1.411       .  A
C386        N387   1.432       .  S
N387        H391   1.038       .  S
N387        H392   1.051       .  S
N390        H393   1.044       .  S
N390        H394   1.047       .  S
C395        C396   1.411       .  A
C395        C400   1.406       .  A
C395        H402   1.083       .  S
C396        C397   1.416       .  A
C397        C398   1.395       .  A
C397        N404   1.433       .  S
C398        C399   1.408       .  A
C398        H403   1.084       .  S
C399        C400   1.411       .  A
C400        N401   1.438       .  S
N401        H405   1.047       .  S
N401        H406   1.044       .  S
N404        H407   1.045       .  S
N404        H408   1.045       .  S
C409        C414   1.405   1_556  A
C409       C1434   1.404   1_556  A
C409       H1440   1.084       .  S
C410       C1433   1.406       .  A
C410       C1435   1.413       .  A
C411        C412   1.404       .  A
C411       C1434   1.410       .  A
C411        N418   1.433       .  S
C412        C413   1.404       .  A
C412        H417   1.084       .  S
C413        C414   1.406       .  A
C414        N415   1.431       .  S
N415        H419   1.045   1_454  S
N415        H420   1.046   1_554  S
H416       C1433   1.084       .  S
N418        H421   1.045       .  S
N418        H422   1.046       .  S
C423        C424   1.400       .  A
C423        C428   1.409       .  A
C423        H430   1.084       .  S
C424        C425   1.412   1_655  A
C425        C426   1.411   1_455  A
C425        N432   1.437       .  S
C426        C427   1.406       .  A
C426        H431   1.084   1_655  S
C427        C428   1.420       .  A
C428        N429   1.438       .  S
N429        H433   1.045       .  S
N429        H434   1.046       .  S
N432        H435   1.046       .  S
N432        H436   1.046       .  S
C437        C438   1.397       .  A
C437       C1466   1.399   1_554  A
C437        H444   1.085       .  S
C438       C1463   1.407   1_454  A
C439        C440   1.411       .  A
C439       C1462   1.415   1_655  A
C439       N1470   1.437       .  S
C440        C441   1.403   1_655  A
C440        H445   1.084       .  S
C441        C442   1.416       .  A
C442       C1461   1.398       .  A
C442        N443   1.440       .  S
N443        H447   1.045       .  S
N443        H448   1.041       .  S
N446       C1463   1.437   1_554  S
N446        H449   1.047       .  S
N446       H1474   1.043   1_554  S
H450       N1470   1.046       .  S
C451        C452   1.404       .  A
C451        C456   1.402       .  A
C451        H458   1.084       .  S
C452        C453   1.410       .  A
C453        C454   1.405       .  A
C453        N460   1.432       .  S
C454        C455   1.405       .  A
C454        H459   1.084       .  S
C455        C456   1.412       .  A
C456        N457   1.433       .  S
N457        H461   1.045       .  S
N457        H462   1.046       .  S
N460        H463   1.045       .  S
N460        H464   1.046       .  S
C465        C466   1.408       .  A
C465        C470   1.405       .  A
C465        H472   1.084       .  S
C466        C467   1.416       .  A
C467        C468   1.409       .  A
C467        N474   1.437       .  S
C468        C469   1.404       .  A
C468        H473   1.084       .  S
C469        C470   1.409       .  A
C470        N471   1.432       .  S
N471        H475   1.046       .  S
N471        H476   1.046       .  S
N474        H477   1.045       .  S
N474        H478   1.045       .  S
C479        C480   1.400       .  A
C479        C484   1.392       .  A
C479        H486   1.085       .  S
C480        C481   1.411       .  A
C481        C482   1.397       .  A
C481        N488   1.433       .  S
C482        C483   1.400       .  A
C482        H487   1.084       .  S
C483        C484   1.416       .  A
C484        N485   1.433       .  S
N485        H489   1.044       .  S
N485        H490   1.045       .  S
N488        H491   1.045       .  S
N488        H492   1.046       .  S
C493        C494   1.405       .  A
C493        C498   1.408       .  A
C493        H500   1.084       .  S
C494        C495   1.421       .  A
C495        C496   1.404       .  A
C495        N502   1.433       .  S
C496        C497   1.401       .  A
C496        H501   1.084       .  S
C497        C498   1.411       .  A
C498        N499   1.433       .  S
N499        H503   1.045       .  S
N499        H504   1.046       .  S
N502        H505   1.045       .  S
N502        H506   1.045       .  S
C507        C508   1.406       .  A
C507       C1536   1.408       .  A
C507        H514   1.084       .  S
C508        C509   1.415       .  A
C509        C510   1.397       .  A
C509        N516   1.431       .  S
C510       C1535   1.402       .  A
C510        H515   1.084       .  S
C511        C512   1.410   1_554  A
C511       C1534   1.403       .  A
C512       C1531   1.411       .  A
C512        N513   1.438   1_556  S
N513        H517   1.045   1_554  S
N513        H518   1.045       .  S
N516        H519   1.045       .  S
N516        H520   1.044       .  S
C521        C522   1.413       .  A
C521        C526   1.402       .  A
C521        H528   1.083       .  S
C522        C523   1.421       .  A
C523        C524   1.398       .  A
C523        N530   1.433       .  S
C524        C525   1.400       .  A
C524        H529   1.084       .  S
C525        C526   1.406       .  A
C526        N527   1.432       .  S
N527        H531   1.046       .  S
N527        H532   1.045       .  S
N530        H533   1.045       .  S
N530        H534   1.045       .  S
C535        C536   1.404       .  A
C535        C540   1.404       .  A
C535        H542   1.084       .  S
C536        C537   1.417       .  A
C537        C538   1.401       .  A
C537        N544   1.433       .  S
C538        C539   1.402       .  A
C538        H543   1.084       .  S
C539        C540   1.414       .  A
C540        N541   1.432       .  S
N541        H545   1.046       .  S
N541        H546   1.045       .  S
N544        H547   1.047       .  S
N544        H548   1.044       .  S
C549        C550   1.402       .  A
C549       C1578   1.400       .  A
C549        H556   1.085       .  S
C550       C1575   1.407       .  A
C551        C552   1.414       .  A
C551       C1574   1.409   1_554  A
C551        N558   1.434       .  S
C552        C553   1.408       .  A
C552        H557   1.083       .  S
C553        C554   1.412       .  A
C554       C1573   1.400   1_554  A
C554        N555   1.433   1_554  S
N555        H560   1.046       .  S
N555       H1583   1.046       .  S
N558        H561   1.046   1_565  S
N558        H562   1.046       .  S
H559       N1579   1.045       .  S
C563        C564   1.410       .  A
C563        C568   1.407       .  A
C563        H570   1.083       .  S
C564        C565   1.418       .  A
C565        C566   1.401       .  A
C565        N572   1.432       .  S
C566        C567   1.403       .  A
C566        H571   1.084       .  S
C567        C568   1.410       .  A
C568        N569   1.438       .  S
N569        H573   1.046       .  S
N569        H574   1.046       .  S
N572        H575   1.047       .  S
N572        H576   1.043       .  S
C577        C578   1.399       .  A
C577        C582   1.401       .  A
C577        H584   1.084       .  S
C578        C579   1.408       .  A
C579        C580   1.405       .  A
C579        N586   1.437       .  S
C580        C581   1.404       .  A
C580        H585   1.084       .  S
C581        C582   1.411       .  A
C582        N583   1.433       .  S
N583        H587   1.045       .  S
N583        H588   1.045       .  S
N586        H589   1.046       .  S
N586        H590   1.046       .  S
C591        C592   1.407       .  A
C591        C596   1.412       .  A
C591        H598   1.084       .  S
C592       C1234   1.483   1_554  S
C592        C593   1.413       .  A
C593        C594   1.391       .  A
C593        N600   1.431       .  S
C594        C595   1.406       .  A
C594        H599   1.084       .  S
C595        C596   1.415       .  A
C596        N597   1.432       .  S
N597        H601   1.046       .  S
N597        H602   1.045   1_565  S
N600        H603   1.044       .  S
N600        H604   1.046       .  S
C605        C606   1.401       .  A
C605        C610   1.400       .  A
C605        H612   1.083       .  S
C606        C607   1.414   1_565  A
C607        C608   1.407       .  A
C607        N614   1.431       .  S
C608        C609   1.410   1_545  A
C608        H613   1.083       .  S
C609        C610   1.415       .  A
C610        N611   1.433       .  S
N611        H615   1.045       .  S
N611        H616   1.046       .  S
N614        H617   1.045       .  S
N614        H618   1.046       .  S
C619        C620   1.404       .  A
C619        C624   1.408       .  A
C619        H626   1.084       .  S
C620        C621   1.414       .  A
C621        C622   1.401       .  A
C621        N628   1.432       .  S
C622        C623   1.406       .  A
C622        H627   1.084       .  S
C623        C624   1.416       .  A
C624        N625   1.438       .  S
N625        H629   1.046       .  S
N625        H630   1.046       .  S
N628        H631   1.043       .  S
N628        H632   1.046       .  S
C633        C634   1.404       .  A
C633        C638   1.409       .  A
C633        H640   1.084       .  S
C634        C635   1.404       .  A
C635        C636   1.402       .  A
C635        N642   1.433       .  S
C636        C637   1.405       .  A
C636        H641   1.084       .  S
C637        C638   1.410       .  A
C638        N639   1.438       .  S
N639        H643   1.045       .  S
N639        H644   1.046       .  S
N642        H645   1.045       .  S
N642        H646   1.046       .  S
C647        C648   1.403       .  A
C647        C652   1.411       .  A
C647        H654   1.083       .  S
C648        C649   1.411       .  A
C649        C650   1.403       .  A
C649        N656   1.433       .  S
C650        C651   1.400       .  A
C650        H655   1.085       .  S
C651        C652   1.411       .  A
C652        N653   1.437       .  S
N653        H657   1.045       .  S
N653        H658   1.046       .  S
N656        H659   1.046       .  S
N656        H660   1.045       .  S
C661        C662   1.405       .  A
C661        C666   1.404       .  A
C661        H668   1.084       .  S
C662       C1174   1.486   1_554  S
C662        C663   1.410       .  A
C663        C664   1.411       .  A
C663        N670   1.438       .  S
C664        C665   1.412       .  A
C664        H669   1.083       .  S
C665        C666   1.415       .  A
C666        N667   1.438       .  S
N667        H671   1.045       .  S
N667        H672   1.046       .  S
N670        H674   1.045       .  S
N670       H1697   1.046       .  S
H673       N1694   1.046       .  S
C675        C676   1.407       .  A
C675        C680   1.410       .  A
C675        H682   1.083       .  S
C676        C677   1.421       .  A
C677        C678   1.405       .  A
C677        N684   1.439       .  S
C678        C679   1.398       .  A
C678        H683   1.084       .  S
C679        C680   1.409       .  A
C680        N681   1.432       .  S
N681        H685   1.045       .  S
N681        H686   1.045       .  S
N684        H687   1.045       .  S
N684        H688   1.046       .  S
C689        C690   1.402       .  A
C689        C694   1.407       .  A
C689        H696   1.084       .  S
C690        C691   1.413       .  A
C691        C692   1.410       .  A
C691        N698   1.438       .  S
C692        C693   1.402       .  A
C692        H697   1.084       .  S
C693        C694   1.410       .  A
C694        N695   1.433       .  S
N695        H699   1.045       .  S
N695        H700   1.046       .  S
N698        H701   1.045       .  S
N698        H702   1.046       .  S
C703        C704   1.404       .  A
C703        C708   1.409       .  A
C703        H710   1.084       .  S
C704        C705   1.412       .  A
C705        C706   1.403       .  A
C705        N712   1.439       .  S
C706        C707   1.405       .  A
C706        H711   1.084       .  S
C707        C708   1.415       .  A
C708        N709   1.436       .  S
N709        H713   1.045       .  S
N709        H714   1.045       .  S
N712        H715   1.046       .  S
N712        H716   1.045       .  S
C717        C718   1.404       .  A
C717        C722   1.409       .  A
C717        H724   1.084       .  S
C718        C719   1.408       .  A
C719        C720   1.401       .  A
C719        N726   1.433       .  S
C720        C721   1.402       .  A
C720        H725   1.085       .  S
C721        C722   1.408       .  A
C722        N723   1.432       .  S
N723        H727   1.045       .  S
N723        H728   1.045       .  S
N726        H729   1.045       .  S
N726        H730   1.046       .  S
C731        C732   1.403       .  A
C731        C736   1.399       .  A
C731        H738   1.084       .  S
C732        C733   1.413       .  A
C733        C734   1.407       .  A
C733        N740   1.432       .  S
C734        C735   1.404       .  A
C734        H739   1.084       .  S
C735        C736   1.413       .  A
C736        N737   1.432       .  S
N737        H741   1.046       .  S
N737        H742   1.045       .  S
N740        H743   1.046       .  S
N740        H744   1.046       .  S
C745        C746   1.404       .  A
C745        C750   1.403       .  A
C745        H752   1.083       .  S
C746        C747   1.417       .  A
C747        C748   1.395   1_554  A
C747        N754   1.433   1_554  S
C748       C1773   1.400       .  A
C748        H753   1.084       .  S
C749       C1772   1.404       .  A
C749       C1774   1.411       .  A
C750       C1773   1.408   1_554  A
C750       N1775   1.438       .  S
N751       C1774   1.438       .  S
N751        H755   1.045       .  S
N751        H756   1.045       .  S
N754        H757   1.045   1_546  S
N754        H758   1.043   1_556  S
C759        C764   1.395       .  A
C759       C1784   1.403   1_545  A
C759        H766   1.085       .  S
C760        C761   1.407   1_554  A
C760       C1783   1.400   1_565  A
C761       C1786   1.405       .  A
C761        N768   1.437   1_556  S
C762        C763   1.408       .  A
C762       C1785   1.412       .  A
C762        H767   1.084       .  S
C763        C764   1.413   1_565  A
C764        N765   1.431       .  S
N765        H769   1.044       .  S
N765        H770   1.045       .  S
N768        H771   1.045       .  S
N768        H772   1.046   1_554  S
C773        C774   1.403   1_545  A
C773        C778   1.405       .  A
C773        H780   1.084       .  S
C774        C775   1.417       .  A
C775        C776   1.405       .  A
C775        N782   1.433       .  S
C776        C777   1.399       .  A
C776        H781   1.084       .  S
C777        C778   1.409   1_565  A
C778        N779   1.431       .  S
N779        H783   1.046       .  S
N779        H784   1.045       .  S
N782        H785   1.046       .  S
N782        H786   1.045       .  S
C787        C788   1.403       .  A
C787        C792   1.402       .  A
C787        H794   1.084       .  S
C788        C789   1.412       .  A
C789        C790   1.414       .  A
C789        N796   1.437       .  S
C790        C791   1.406       .  A
C790        H795   1.084       .  S
C791        C792   1.407       .  A
C792        N793   1.433       .  S
N793        H797   1.045       .  S
N793        H798   1.046       .  S
N796        H799   1.045       .  S
N796        H800   1.045       .  S
C801        C802   1.405       .  A
C801        C806   1.405       .  A
C801        H808   1.084       .  S
C802        C803   1.411       .  A
C803        C804   1.405       .  A
C803        N810   1.431       .  S
C804        C805   1.404       .  A
C804        H809   1.084       .  S
C805        C806   1.412       .  A
C806        N807   1.438       .  S
N807        H811   1.046       .  S
N807        H812   1.045       .  S
N810        H813   1.045       .  S
N810        H814   1.045       .  S
C815        C816   1.402       .  A
C815        C820   1.403       .  A
C815        H822   1.084       .  S
C816        C817   1.412       .  A
C817        C818   1.412       .  A
C817        N824   1.438       .  S
C818        C819   1.404       .  A
C818        H823   1.084       .  S
C819        C820   1.409       .  A
C820        N821   1.437       .  S
N821        H825   1.047       .  S
N821        H826   1.043       .  S
N824        H827   1.046       .  S
N824        H828   1.046       .  S
C829        C830   1.402       .  A
C829        C834   1.408       .  A
C829        H836   1.084       .  S
C830        C831   1.406       .  A
C831        C832   1.397       .  A
C831        N838   1.433       .  S
C832        C833   1.405       .  A
C832        H837   1.084       .  S
C833        C834   1.417       .  A
C834        N835   1.438       .  S
N835        H839   1.046       .  S
N835        H840   1.046       .  S
N838        H841   1.045       .  S
N838        H842   1.046       .  S
C843        C844   1.403       .  A
C843        C848   1.402       .  A
C843        H850   1.084       .  S
C844        C845   1.417       .  A
C845        C846   1.397       .  A
C845        N852   1.433       .  S
C846        C847   1.401       .  A
C846        H851   1.084       .  S
C847        C848   1.412       .  A
C848        N849   1.439       .  S
N849        H853   1.046       .  S
N849        H854   1.045       .  S
N852        H855   1.047       .  S
N852        H856   1.043       .  S
C857        C858   1.399       .  A
C857        C862   1.401       .  A
C857        H864   1.084       .  S
C858        C859   1.409   1_655  A
C859        C860   1.408       .  A
C859        N866   1.432       .  S
C860        C861   1.405   1_455  A
C860        H865   1.084       .  S
C861       C1108   1.480   1_554  S
C861        C862   1.412       .  A
C862        N863   1.433       .  S
N863        H867   1.046       .  S
N863       H1892   1.045       .  S
N866        H869   1.046       .  S
N866        H870   1.046       .  S
H868       N1887   1.045       .  S
C871        C872   1.402   1_455  A
C871        C876   1.407       .  A
C871        H878   1.084       .  S
C872        C873   1.413       .  A
C873        C874   1.405       .  A
C873        N880   1.438       .  S
C874        C875   1.402       .  A
C874        H879   1.084       .  S
C875        C876   1.413   1_655  A
C876        N877   1.437       .  S
N877        H881   1.045       .  S
N877        H882   1.046       .  S
N880        H883   1.046       .  S
N880        H884   1.046       .  S
C885        C886   1.402       .  A
C885        C890   1.404       .  A
C885        H892   1.084       .  S
C886        C887   1.407       .  A
C887        C888   1.409       .  A
C887        N894   1.432       .  S
C888        C889   1.404       .  A
C888        H893   1.084       .  S
C889        C890   1.409       .  A
C890        N891   1.438       .  S
N891        H895   1.046       .  S
N891        H896   1.046       .  S
N894        H897   1.046       .  S
N894        H898   1.045       .  S
C899        C900   1.406       .  A
C899        C904   1.400       .  A
C899        H906   1.084       .  S
C900        C901   1.415       .  A
C901        C902   1.406       .  A
C901        N908   1.432       .  S
C902        C903   1.400       .  A
C902        H907   1.082       .  S
C903        C904   1.412       .  A
C904        N905   1.432       .  S
N905        H909   1.046       .  S
N905        H910   1.043       .  S
N908        H911   1.046       .  S
N908        H912   1.046       .  S
C913        C914   1.401       .  A
C913        C918   1.402       .  A
C913        H920   1.084       .  S
C914        C915   1.417       .  A
C915        C916   1.407       .  A
C915        N922   1.439       .  S
C916        C917   1.404       .  A
C916        H921   1.083       .  S
C917        C918   1.416       .  A
C918        N919   1.438       .  S
N919        H923   1.045       .  S
N919        H924   1.046       .  S
N922        H925   1.046       .  S
N922        H926   1.046       .  S
C927        C928   1.402       .  A
C927        C932   1.402       .  A
C927        H934   1.085       .  S
C928        C929   1.405       .  A
C929       C1954   1.403   1_554  A
C929        N936   1.431       .  S
C930        C931   1.406       .  A
C930       C1953   1.406       .  A
C930        H935   1.084       .  S
C931       C1956   1.410       .  A
C932       C1955   1.411   1_554  A
C932        N933   1.434       .  S
N933        H937   1.046       .  S
N933        H938   1.046       .  S
N936        H939   1.046   1_554  S
N936        H940   1.045   1_554  S
C941        C942   1.403       .  A
C941        C946   1.408       .  A
C941        H948   1.084       .  S
C942        C943   1.410       .  A
C943        C944   1.405       .  A
C943        N950   1.433       .  S
C944        C945   1.401       .  A
C944        H949   1.084       .  S
C945        C946   1.410       .  A
C946        N947   1.432       .  S
N947        H951   1.046       .  S
N947        H952   1.045       .  S
N950        H953   1.046       .  S
N950        H954   1.045       .  S
C955        C956   1.409       .  A
C955        C960   1.405       .  A
C955        H962   1.083       .  S
C956        C957   1.411       .  A
C957        C958   1.411       .  A
C957        N964   1.437       .  S
C958        C959   1.411       .  A
C958        H963   1.083       .  S
C959        C960   1.414       .  A
C960        N961   1.439       .  S
N961        H965   1.046       .  S
N961        H966   1.045       .  S
N964        H967   1.045       .  S
N964        H968   1.046       .  S
C969        C970   1.402       .  A
C969        C974   1.397       .  A
C969        H976   1.084       .  S
C970        C971   1.415       .  A
C971        C972   1.406       .  A
C971        N978   1.438       .  S
C972        C973   1.404       .  A
C972        H977   1.084       .  S
C973        C974   1.411       .  A
C974        N975   1.432       .  S
N975        H979   1.044       .  S
N975        H980   1.044       .  S
N978        H981   1.045       .  S
N978        H982   1.045       .  S
C983        C984   1.408       .  A
C983        C988   1.409       .  A
C983        H990   1.084       .  S
C984        C985   1.411       .  A
C985        C986   1.399       .  A
C985        N992   1.433       .  S
C986        C987   1.403       .  A
C986        H991   1.084       .  S
C987        C988   1.411       .  A
C988        N989   1.432       .  S
N989        H993   1.046       .  S
N989        H994   1.046       .  S
N992        H995   1.046       .  S
N992        H996   1.045       .  S
C997        C998   1.409       .  A
C997       C2026   1.413       .  A
C997       H1004   1.083       .  S
C998        C999   1.415       .  A
C999       C1000   1.406       .  A
C999       N1006   1.433       .  S
C1000      C2025   1.401       .  A
C1000      H2029   1.084       .  S
C1001      C1002   1.408   1_554  A
C1001      C2024   1.399       .  A
C1002      C2021   1.412       .  A
C1002      N1003   1.437   1_556  S
N1003      H1007   1.047   1_554  S
N1003      H1008   1.043       .  S
H1005      C2024   1.084       .  S
N1006      H1009   1.046       .  S
N1006      H1010   1.045       .  S
C1011      C1012   1.400       .  A
C1011      C1016   1.406       .  A
C1011      H1018   1.084       .  S
C1012      C1013   1.412       .  A
C1013      C1014   1.402       .  A
C1013      N1020   1.433       .  S
C1014      C1015   1.408       .  A
C1014      H1019   1.084       .  S
C1015      C1016   1.417       .  A
C1016      N1017   1.432       .  S
N1017      H1021   1.046       .  S
N1017      H1022   1.045       .  S
N1020      H1023   1.046       .  S
N1020      H1024   1.045       .  S
O1025     Cr1043   2.016       .  S
O1025      C1033   1.269       .  A
O1026     Cr1043   1.980       .  S
O1026      C1027   1.261       .  A
C1027      O1028   1.265       .  A
C1027      C2008   1.482       .  S
O1028     Cr1044   2.006       .  S
O1029     Cr1044   2.001       .  S
O1029      C1030   1.263       .  A
C1030      O1031   1.259       .  A
C1030      C1980   1.483       .  S
O1031     Cr1045   1.980       .  S
O1032     Cr1045   1.986       .  S
O1032      C1033   1.263       .  A
C1033      C2022   1.498       .  S
O1034     Cr1043   2.002       .  S
O1034      C1042   1.263       .  A
O1035     Cr1043   2.015       .  S
O1035      C1036   1.266       .  A
C1036      O1037   1.259       .  A
C1036      C2036   1.477       .  S
O1037     Cr1044   1.982       .  S
O1038     Cr1044   1.995       .  S
O1038      C1039   1.266       .  A
C1039      O1040   1.269       .  A
C1039      C1994   1.475       .  S
O1040     Cr1045   2.002       .  S
O1041     Cr1045   1.996       .  S
O1041      C1042   1.261       .  A
C1042      C1966   1.474       .  S
Cr1043     O1046   1.777       .  S
Cr1044     O1046   1.769       .  S
Cr1045     O1046   1.771       .  S
O1047     Cr1065   1.981       .  S
O1047      C1055   1.261       .  A
O1048     Cr1065   2.021       .  S
O1048      C1049   1.271       .  A
C1049      O1050   1.265       .  A
C1049      C2039   1.499       .  S
O1050     Cr1066   1.983       .  S
O1051     Cr1066   1.991       .  S
O1051      C1052   1.258       .  A
C1052      O1053   1.259       .  A
C1052      C1941   1.484       .  S
O1053     Cr1067   1.987       .  S
O1054     Cr1067   1.989       .  S
O1054      C1055   1.261       .  A
C1055      C1924   1.486       .  S
O1056     Cr1065   2.016       .  S
O1056      C1064   1.267       .  A
O1057     Cr1065   2.002       .  S
O1057      C1058   1.261       .  A
C1058      O1059   1.259       .  A
C1058      C1910   1.474       .  S
O1059     Cr1066   1.993       .  S
O1060     Cr1066   1.996       .  S
O1060      C1061   1.268       .  A
C1061      O1062   1.266       .  A
C1061      C1952   1.466       .  S
O1062     Cr1067   1.991       .  S
O1063     Cr1067   1.979       .  S
O1063      C1064   1.260       .  A
C1064      C2025   1.482       .  S
Cr1065     O1068   1.774       .  S
Cr1066     O1068   1.776       .  S
Cr1067     O1068   1.774       .  S
O1069     Cr1087   1.965       .  S
O1069      C1077   1.258       .  A
O1070     Cr1087   2.035       .  S
O1070      C1071   1.277       .  A
C1071      O1072   1.259       .  A
C1071      C1938   1.485       .  S
O1072     Cr1088   1.955       .  S
O1073     Cr1088   2.005       .  S
O1073      C1074   1.264       .  A
C1074      O1075   1.258       .  A
C1074      C1857   1.484       .  S
O1075     Cr1089   1.979       .  S
O1076     Cr1089   2.004       .  S
O1076      C1077   1.265       .  A
C1077      C1882   1.470       .  S
O1078     Cr1087   2.031   1_455  S
O1078      C1086   1.269       .  A
O1079     Cr1087   1.996       .  S
O1079      C1080   1.260       .  A
C1080      O1081   1.260       .  A
C1080      C1896   1.480       .  S
O1081     Cr1088   2.004       .  S
O1082     Cr1088   1.960       .  S
O1082      C1083   1.260       .  A
C1083      O1084   1.267       .  A
C1083      C1871   1.466       .  S
O1084     Cr1089   2.010       .  S
O1085     Cr1089   1.953   1_455  S
O1085      C1086   1.255       .  A
C1086      C1840   1.477       .  S
Cr1087     O1090   1.771       .  S
Cr1088     O1090   1.763       .  S
Cr1089     O1090   1.769       .  S
O1091     Cr1109   2.028       .  S
O1091      C1099   1.276       .  A
O1092     Cr1109   1.969       .  S
O1092      C1093   1.259       .  A
C1093      O1094   1.269       .  A
C1093      C1899   1.485       .  S
O1094     Cr1110   2.016       .  S
O1095     Cr1110   1.980       .  S
O1095      C1096   1.256       .  A
C1096      O1097   1.263       .  A
C1096      C2011   1.483       .  S
O1097     Cr1111   2.010       .  S
O1098     Cr1111   1.967       .  S
O1098      C1099   1.264       .  A
C1099      C1826   1.484       .  S
O1100     Cr1109   1.991       .  S
O1100      C1108   1.258       .  A
O1101     Cr1109   2.023   1_455  S
O1101      C1102   1.267       .  A
C1102      O1103   1.254       .  A
C1102      C1812   1.473       .  S
O1103     Cr1110   1.950   1_455  S
O1104     Cr1110   2.026       .  S
O1104      C1105   1.273       .  A
C1105      O1106   1.262       .  A
C1105      C1955   1.478       .  S
O1106     Cr1111   1.967       .  S
O1107     Cr1111   2.000       .  S
O1107      C1108   1.260       .  A
Cr1109     O1112   1.774       .  S
Cr1110     O1112   1.768       .  S
Cr1111     O1112   1.766       .  S
O1113     Cr1131   2.033   1_545  S
O1113      C1121   1.275       .  A
O1114     Cr1131   1.965       .  S
O1114      C1115   1.259       .  A
C1115      O1116   1.267       .  A
C1115      C1798   1.476       .  S
O1116     Cr1132   2.011   1_565  S
O1117     Cr1132   1.990       .  S
O1117      C1118   1.260       .  A
C1118      O1119   1.260       .  A
C1118      C1759   1.485       .  S
O1119     Cr1133   1.998       .  S
O1120     Cr1133   1.959       .  S
O1120      C1121   1.260       .  A
C1121      C1854   1.475       .  S
O1122     Cr1131   1.993       .  S
O1122      C1130   1.258       .  A
O1123     Cr1131   2.021       .  S
O1123      C1124   1.266       .  A
C1124      O1125   1.257       .  A
C1124      C1745   1.472       .  S
O1125     Cr1132   1.958   1_565  S
O1126     Cr1132   2.021       .  S
O1126      C1127   1.271       .  A
C1127      O1128   1.262       .  A
C1127      C1770   1.476       .  S
O1128     Cr1133   1.970       .  S
O1129     Cr1133   1.996       .  S
O1129      C1130   1.259   1_545  A
C1130      C1784   1.479       .  S
Cr1131     O1134   1.776   1_565  S
Cr1132     O1134   1.768       .  S
Cr1133     O1134   1.763       .  S
O1135     Cr1153   1.963       .  S
O1135      C1143   1.258       .  A
O1136     Cr1153   2.032   1_545  S
O1136      C1137   1.274       .  A
C1137      O1138   1.260       .  A
C1137      C1731   1.486       .  S
O1138     Cr1154   1.960       .  S
O1139     Cr1154   2.008       .  S
O1139      C1140   1.265       .  A
C1140      O1141   1.259       .  A
C1140      C1829   1.478       .  S
O1141     Cr1155   1.975       .  S
O1142     Cr1155   2.013   1_565  S
O1142      C1143   1.267       .  A
C1143      C1787   1.479       .  S
O1144     Cr1153   2.035       .  S
O1144      C1152   1.270       .  A
O1145     Cr1153   1.984       .  S
O1145      C1146   1.259   1_565  A
C1146      O1147   1.263       .  A
C1146      C1801   1.474   1_545  S
O1147     Cr1154   2.004       .  S
O1148     Cr1154   1.966       .  S
O1148      C1149   1.260       .  A
C1149      O1150   1.264       .  A
C1149      C1868   1.466       .  S
O1150     Cr1155   2.000       .  S
O1151     Cr1155   1.962   1_565  S
O1151      C1152   1.255       .  A
C1152      C1714   1.478       .  S
Cr1153     O1156   1.770   1_565  S
Cr1154     O1156   1.763       .  S
Cr1155     O1156   1.769       .  S
O1157     Cr1175   2.032       .  S
O1157      C1165   1.277       .  A
O1158     Cr1175   1.960       .  S
O1158      C1159   1.257       .  A
C1159      O1160   1.269       .  A
C1159      C1700   1.488       .  S
O1160     Cr1176   2.020       .  S
O1161     Cr1176   1.979       .  S
O1161      C1162   1.258       .  A
C1162      O1163   1.261       .  A
C1162      C1728   1.472       .  S
O1163     Cr1177   1.998       .  S
O1164     Cr1177   1.963       .  S
O1164      C1165   1.260       .  A
C1165      C1983   1.486       .  S
O1166     Cr1175   1.999       .  S
O1166      C1174   1.261       .  A
O1167     Cr1175   2.036       .  S
O1167      C1168   1.270       .  A
C1168      O1169   1.255       .  A
C1168      C1672   1.484       .  S
O1169     Cr1176   1.962       .  S
O1170     Cr1176   2.014       .  S
O1170      C1171   1.269       .  A
C1171      O1172   1.261       .  A
C1171      C1773   1.468       .  S
O1172     Cr1177   1.967       .  S
O1173     Cr1177   1.995       .  S
O1173      C1174   1.260       .  A
Cr1175     O1178   1.770       .  S
Cr1176     O1178   1.772       .  S
Cr1177     O1178   1.766       .  S
O1179     Cr1197   2.011       .  S
O1179      C1187   1.266       .  A
O1180     Cr1197   1.982       .  S
O1180      C1181   1.263       .  A
C1181      O1182   1.264       .  A
C1181      C1756   1.483       .  S
O1182     Cr1198   2.006       .  S
O1183     Cr1198   2.001       .  S
O1183      C1184   1.263       .  A
C1184      O1185   1.259       .  A
C1184      C1927   1.482       .  S
O1185     Cr1199   1.980       .  S
O1186     Cr1199   1.984       .  S
O1186      C1187   1.264       .  A
C1187      C1689   1.486       .  S
O1188     Cr1197   2.000       .  S
O1188      C1196   1.263       .  A
O1189     Cr1197   2.013       .  S
O1189      C1190   1.264       .  A
C1190      O1191   1.259       .  A
C1190      C1703   1.476       .  S
O1191     Cr1198   1.976       .  S
O1192     Cr1198   1.995       .  S
O1192      C1193   1.265       .  A
C1193      O1194   1.268       .  A
C1193      C1997   1.475       .  S
O1194     Cr1199   2.001       .  S
O1195     Cr1199   1.994       .  S
O1195      C1196   1.260       .  A
C1196      C1658   1.472       .  S
Cr1197     O1200   1.777       .  S
Cr1198     O1200   1.772       .  S
Cr1199     O1200   1.772       .  S
O1201     Cr1219   2.032       .  S
O1201      C1209   1.275       .  A
O1202     Cr1219   1.965       .  S
O1202      C1203   1.259       .  A
C1203      O1204   1.266       .  A
C1203      C1619   1.490       .  S
O1204     Cr1220   2.013       .  S
O1205     Cr1220   1.983       .  S
O1205      C1206   1.256       .  A
C1206      O1207   1.261       .  A
C1206      C1588   1.477       .  S
O1207     Cr1221   1.993       .  S
O1208     Cr1221   1.958       .  S
O1208      C1209   1.260       .  A
C1209      C1644   1.482       .  S
O1210     Cr1219   1.999       .  S
O1210      C1218   1.261       .  A
O1211     Cr1219   2.029   1_545  S
O1211      C1212   1.269       .  A
C1212      O1213   1.256       .  A
C1212      C1843   1.477       .  S
O1213     Cr1220   1.954   1_545  S
O1214     Cr1220   2.027       .  S
O1214      C1215   1.271       .  A
C1215      O1216   1.263       .  A
C1215      C1605   1.477       .  S
O1216     Cr1221   1.966       .  S
O1217     Cr1221   1.998       .  S
O1217      C1218   1.261       .  A
C1218      C1630   1.492       .  S
Cr1219     O1222   1.772       .  S
Cr1220     O1222   1.771       .  S
Cr1221     O1222   1.761       .  S
O1223     Cr1241   2.020   1_545  S
O1223      C1231   1.270   1_545  A
O1224     Cr1241   1.993       .  S
O1224      C1225   1.261       .  A
C1225      O1226   1.260       .  A
C1225      C1546   1.477       .  S
O1226     Cr1242   1.997       .  S
O1227     Cr1242   1.989       .  S
O1227      C1228   1.262       .  A
C1228      O1229   1.260       .  A
C1228      C1560   1.487       .  S
O1229     Cr1243   1.993       .  S
O1230     Cr1243   1.974       .  S
O1230      C1231   1.263       .  A
C1231      C1633   1.491       .  S
O1232     Cr1241   2.010   1_545  S
O1232      C1240   1.263       .  A
O1233     Cr1241   2.024       .  S
O1233      C1234   1.269       .  A
C1234      O1235   1.258       .  A
O1235     Cr1242   1.960       .  S
O1236     Cr1242   1.994       .  S
O1236      C1237   1.267       .  A
C1237      O1238   1.269       .  A
C1237      C1574   1.476       .  S
O1238     Cr1243   2.007       .  S
O1239     Cr1243   1.993   1_545  S
O1239      C1240   1.259       .  A
C1240      C1675   1.478       .  S
Cr1241     O1244   1.778       .  S
Cr1242     O1244   1.766       .  S
Cr1243     O1244   1.774       .  S
O1245     Cr1263   2.023       .  S
O1245      C1253   1.273       .  A
O1246     Cr1263   1.969       .  S
O1246      C1247   1.258       .  A
C1247      O1248   1.270       .  A
C1247      C1532   1.487       .  S
O1248     Cr1264   2.021       .  S
O1249     Cr1264   1.977       .  S
O1249      C1250   1.259       .  A
C1250      O1251   1.262       .  A
C1250      C1493   1.479       .  S
O1251     Cr1265   2.005       .  S
O1252     Cr1265   1.967       .  S
O1252      C1253   1.262       .  A
C1253      C1563   1.488       .  S
O1254     Cr1263   1.990       .  S
O1254      C1262   1.260       .  A
O1255     Cr1263   2.026       .  S
O1255      C1256   1.267       .  A
C1256      O1257   1.255       .  A
C1256      C1969   1.479       .  S
O1257     Cr1264   1.964       .  S
O1258     Cr1264   2.006       .  S
O1258      C1259   1.266       .  A
C1259      O1260   1.263       .  A
C1259      C1504   1.471       .  S
O1260     Cr1265   1.975       .  S
O1261     Cr1265   2.002       .  S
O1261      C1262   1.262       .  A
C1262      C1521   1.481       .  S
Cr1263     O1266   1.778       .  S
Cr1264     O1266   1.772       .  S
Cr1265     O1266   1.767       .  S
O1267     Cr1285   1.965       .  S
O1267      C1275   1.259       .  A
O1268     Cr1285   2.032       .  S
O1268      C1269   1.272       .  A
C1269      O1270   1.260       .  A
C1269      C1476   1.481       .  S
O1270     Cr1286   1.964       .  S
O1271     Cr1286   2.012       .  S
O1271      C1272   1.266       .  A
C1272      O1273   1.257       .  A
C1272      C1647   1.479       .  S
O1273     Cr1287   1.968       .  S
O1274     Cr1287   2.018       .  S
O1274      C1275   1.268       .  A
C1275      C1518   1.473       .  S
O1276     Cr1285   2.026       .  S
O1276      C1284   1.267       .  A
O1277     Cr1285   1.980       .  S
O1277      C1278   1.259       .  A
C1278      O1279   1.265       .  A
C1278      C1535   1.475       .  S
O1279     Cr1286   2.009       .  S
O1280     Cr1286   1.975       .  S
O1280      C1281   1.262       .  A
C1281      O1282   1.268       .  A
C1281      C1577   1.488       .  S
O1282     Cr1287   2.023       .  S
O1283     Cr1287   1.956       .  S
O1283      C1284   1.255       .  A
C1284      C1742   1.473       .  S
Cr1285     O1288   1.774       .  S
Cr1286     O1288   1.762       .  S
Cr1287     O1288   1.766       .  S
O1289     Cr1307   2.021       .  S
O1289      C1297   1.270       .  A
O1290     Cr1307   1.978   1_455  S
O1290      C1291   1.261       .  A
C1291      O1292   1.260       .  A
C1291      C1591   1.475       .  S
O1292     Cr1308   1.991       .  S
O1293     Cr1308   1.995       .  S
O1293      C1294   1.263       .  A
C1294      O1295   1.261       .  A
C1294      C1423   1.493       .  S
O1295     Cr1309   1.989       .  S
O1296     Cr1309   1.992       .  S
O1296      C1297   1.266   1_455  A
C1297      C1451   1.504       .  S
O1298     Cr1307   2.001       .  S
O1298      C1306   1.260       .  A
O1299     Cr1307   2.012       .  S
O1299      C1300   1.266   1_655  A
C1300      O1301   1.261       .  A
C1300      C1462   1.487       .  S
O1301     Cr1308   1.972       .  S
O1302     Cr1308   1.981       .  S
O1302      C1303   1.262       .  A
C1303      O1304   1.270       .  A
C1303      C1437   1.471       .  S
O1304     Cr1309   2.010       .  S
O1305     Cr1309   1.996   1_655  S
O1305      C1306   1.261       .  A
C1306      C1913   1.476       .  S
Cr1307     O1310   1.776   1_655  S
Cr1308     O1310   1.771       .  S
Cr1309     O1310   1.772       .  S
O1311     Cr1329   1.977   1_455  S
O1311      C1319   1.259       .  A
O1312     Cr1329   2.024       .  S
O1312      C1313   1.272       .  A
C1313      O1314   1.261   1_655  A
C1313      C1465   1.499       .  S
O1314     Cr1330   1.973       .  S
O1315     Cr1330   1.993       .  S
O1315      C1316   1.259       .  A
C1316      O1317   1.263       .  A
C1316      C1549   1.478       .  S
O1317     Cr1331   1.997       .  S
O1318     Cr1331   2.009       .  S
O1318      C1319   1.267       .  A
C1319      C1409   1.489       .  S
O1320     Cr1329   2.021       .  S
O1320      C1328   1.267   1_655  A
O1321     Cr1329   2.006       .  S
O1321      C1322   1.262       .  A
C1322      O1323   1.260       .  A
C1322      C1717   1.479       .  S
O1323     Cr1330   1.998   1_655  S
O1324     Cr1330   1.993       .  S
O1324      C1325   1.266       .  A
C1325      O1326   1.265       .  A
C1325      C1602   1.463       .  S
O1326     Cr1331   1.987       .  S
O1327     Cr1331   1.984       .  S
O1327      C1328   1.259       .  A
C1328      C1448   1.485   1_455  S
Cr1329     O1332   1.776   1_655  S
Cr1330     O1332   1.776       .  S
Cr1331     O1332   1.771       .  S
O1333     Cr1351   2.030       .  S
O1333      C1341   1.274       .  A
O1334     Cr1351   1.957       .  S
O1334      C1335   1.256       .  A
C1335      O1336   1.269       .  A
C1335      C1392   1.474       .  S
O1336     Cr1352   2.017       .  S
O1337     Cr1352   1.978       .  S
O1337      C1338   1.259       .  A
C1338      O1339   1.264       .  A
C1338      C1479   1.480       .  S
O1339     Cr1353   2.004       .  S
O1340     Cr1353   1.966       .  S
O1340      C1341   1.261       .  A
C1341      C1420   1.495       .  S
O1342     Cr1351   1.982       .  S
O1342      C1350   1.258       .  A
O1343     Cr1351   2.033       .  S
O1343      C1344   1.269       .  A
C1344      O1345   1.253       .  A
C1344      C1661   1.477       .  S
O1345     Cr1352   1.955       .  S
O1346     Cr1352   2.013       .  S
O1346      C1347   1.268       .  A
C1347      O1348   1.261       .  A
C1347      C1507   1.474       .  S
O1348     Cr1353   1.967       .  S
O1349     Cr1353   2.006       .  S
O1349      C1350   1.262       .  A
C1350      C1378   1.471       .  S
Cr1351     O1354   1.771       .  S
Cr1352     O1354   1.768       .  S
Cr1353     O1354   1.761       .  S
O1355     Cr1373   1.962       .  S
O1355      C1363   1.258       .  A
O1356     Cr1373   2.028       .  S
O1356      C1357   1.274       .  A
C1357      O1358   1.265       .  A
C1357      C1490   1.490       .  S
O1358     Cr1374   1.972       .  S
O1359     Cr1374   2.011       .  S
O1359      C1360   1.262       .  A
C1360      O1361   1.257       .  A
C1360      C1406   1.484       .  S
O1361     Cr1375   1.985       .  S
O1362     Cr1375   2.014       .  S
O1362      C1363   1.268       .  A
C1363      C1381   1.482       .  S
O1364     Cr1373   2.020       .  S
O1364      C1372   1.265       .  A
O1365     Cr1373   1.998       .  S
O1365      C1366   1.260       .  A
C1366      O1367   1.261       .  A
O1367     Cr1374   2.003       .  S
O1368     Cr1374   1.973       .  S
O1368      C1369   1.264       .  A
C1369      O1370   1.273       .  A
C1369      C1434   1.480   1_556  S
O1370     Cr1375   2.025       .  S
O1371     Cr1375   1.957       .  S
O1371      C1372   1.256       .  A
C1372      C1815   1.474       .  S
Cr1373     O1376   1.776       .  S
Cr1374     O1376   1.766       .  S
Cr1375     O1376   1.770       .  S
C1377      C1378   1.403       .  A
C1377      C1382   1.404       .  A
C1377      H1384   1.084       .  S
C1378      C1379   1.409       .  A
C1379      C1380   1.399       .  A
C1379      N1386   1.433       .  S
C1380      C1381   1.408       .  A
C1380      H1385   1.084       .  S
C1381      C1382   1.411       .  A
C1382      N1383   1.432       .  S
N1383      H1387   1.045       .  S
N1383      H1388   1.045       .  S
N1386      H1389   1.046       .  S
N1386      H1390   1.045       .  S
C1391      C1392   1.401       .  A
C1391      C1396   1.400       .  A
C1391      H1398   1.084       .  S
C1392      C1393   1.420       .  A
C1393      C1394   1.405       .  A
C1393      N1400   1.439       .  S
C1394      C1395   1.402       .  A
C1394      H1399   1.084       .  S
C1395      C1396   1.409       .  A
C1396      N1397   1.432       .  S
N1397      H1401   1.046       .  S
N1397      H1402   1.046       .  S
N1400      H1403   1.043       .  S
N1400      H1404   1.046       .  S
C1405      C1406   1.404       .  A
C1405      C1410   1.399       .  A
C1405      H1412   1.084       .  S
C1406      C1407   1.411       .  A
C1407      C1408   1.410       .  A
C1407      N1414   1.437       .  S
C1408      C1409   1.408       .  A
C1408      H1413   1.083       .  S
C1409      C1410   1.419       .  A
C1410      N1411   1.433       .  S
N1411      H1415   1.044       .  S
N1411      H1416   1.046       .  S
N1414      H1417   1.047       .  S
N1414      H1418   1.043       .  S
C1419      C1420   1.412       .  A
C1419      C1424   1.411       .  A
C1419      H1426   1.083       .  S
C1420      C1421   1.417       .  A
C1421      C1422   1.396       .  A
C1421      N1428   1.433       .  S
C1422      C1423   1.409       .  A
C1422      H1427   1.084       .  S
C1423      C1424   1.413       .  A
C1424      N1425   1.438       .  S
N1425      H1429   1.046       .  S
N1425      H1430   1.046       .  S
N1428      H1431   1.045       .  S
N1428      H1432   1.046       .  S
C1433      C1438   1.407       .  A
C1435      C1436   1.408       .  A
C1435      N1442   1.438       .  S
C1436      C1437   1.404       .  A
C1436      H1441   1.084       .  S
C1437      C1438   1.407       .  A
C1438      N1439   1.432       .  S
N1439      H1443   1.045   1_455  S
N1439      H1444   1.046       .  S
N1442      H1445   1.046       .  S
N1442      H1446   1.045       .  S
C1447      C1448   1.402       .  A
C1447      C1452   1.413       .  A
C1447      H1454   1.084       .  S
C1448      C1449   1.409   1_655  A
C1449      C1450   1.411       .  A
C1449      N1456   1.438       .  S
C1450      C1451   1.410   1_455  A
C1450      H1455   1.083       .  S
C1451      C1452   1.422       .  A
C1452      N1453   1.438       .  S
N1453      H1457   1.046       .  S
N1453      H1458   1.046       .  S
N1456      H1459   1.047       .  S
N1456      H1460   1.045       .  S
C1461      C1462   1.404       .  A
C1461      H1468   1.084       .  S
C1463      C1464   1.410       .  A
C1464      C1465   1.411       .  A
C1464      H1469   1.083       .  S
C1465      C1466   1.425   1_655  A
C1466      N1467   1.432       .  S
N1467      H1471   1.045       .  S
N1467      H1472   1.045       .  S
N1470      H1473   1.045       .  S
C1475      C1476   1.404       .  A
C1475      C1480   1.400       .  A
C1475      H1482   1.084       .  S
C1476      C1477   1.411       .  A
C1477      C1478   1.408       .  A
C1477      N1484   1.432       .  S
C1478      C1479   1.406       .  A
C1478      H1483   1.084       .  S
C1479      C1480   1.409       .  A
C1480      N1481   1.433       .  S
N1481      H1485   1.045       .  S
N1481      H1486   1.046       .  S
N1484      H1487   1.046       .  S
N1484      H1488   1.046       .  S
C1489      C1490   1.407       .  A
C1489      C1494   1.402       .  A
C1489      H1496   1.084       .  S
C1490      C1491   1.418       .  A
C1491      C1492   1.409       .  A
C1491      N1498   1.438       .  S
C1492      C1493   1.403       .  A
C1492      H1497   1.084       .  S
C1493      C1494   1.406       .  A
C1494      N1495   1.432       .  S
N1495      H1499   1.045       .  S
N1495      H1500   1.046       .  S
N1498      H1501   1.044       .  S
N1498      H1502   1.046       .  S
C1503      C1504   1.401       .  A
C1503      C1508   1.397       .  A
C1503      H1510   1.084       .  S
C1504      C1505   1.410       .  A
C1505      C1506   1.399       .  A
C1505      N1512   1.433       .  S
C1506      C1507   1.403       .  A
C1506      H1511   1.084       .  S
C1507      C1508   1.416       .  A
C1508      N1509   1.433       .  S
N1509      H1513   1.045       .  S
N1509      H1514   1.045       .  S
N1512      H1515   1.045       .  S
N1512      H1516   1.046       .  S
C1517      C1518   1.400       .  A
C1517      C1522   1.402       .  A
C1517      H1524   1.084       .  S
C1518      C1519   1.414       .  A
C1519      C1520   1.403       .  A
C1519      N1526   1.432       .  S
C1520      C1521   1.403       .  A
C1520      H1525   1.084       .  S
C1521      C1522   1.413       .  A
C1522      N1523   1.433       .  S
N1523      H1527   1.046       .  S
N1523      H1528   1.046       .  S
N1526      H1529   1.045       .  S
N1526      H1530   1.045       .  S
C1531      C1532   1.408       .  A
C1531      H1538   1.084       .  S
C1532      C1533   1.415       .  A
C1533      C1534   1.400   1_556  A
C1533      N1540   1.431       .  S
C1534      H1539   1.084       .  S
C1535      C1536   1.410       .  A
C1536      N1537   1.438       .  S
N1537      H1541   1.046       .  S
N1537      H1542   1.046       .  S
N1540      H1543   1.046       .  S
N1540      H1544   1.043       .  S
C1545      C1546   1.403       .  A
C1545      C1550   1.403       .  A
C1545      H1552   1.084       .  S
C1546      C1547   1.413       .  A
C1547      C1548   1.401       .  A
C1547      N1554   1.433       .  S
C1548      C1549   1.404       .  A
C1548      H1553   1.083       .  S
C1549      C1550   1.414       .  A
C1550      N1551   1.432       .  S
N1551      H1555   1.044       .  S
N1551      H1556   1.047       .  S
N1554      H1557   1.045       .  S
N1554      H1558   1.046       .  S
C1559      C1560   1.403       .  A
C1559      C1564   1.402       .  A
C1559      H1566   1.084       .  S
C1560      C1561   1.419       .  A
C1561      C1562   1.405       .  A
C1561      N1568   1.439       .  S
C1562      C1563   1.404       .  A
C1562      H1567   1.084       .  S
C1563      C1564   1.414       .  A
C1564      N1565   1.432       .  S
N1565      H1569   1.046       .  S
N1565      H1570   1.046       .  S
N1568      H1571   1.044       .  S
N1568      H1572   1.048       .  S
C1573      C1574   1.401       .  A
C1573      H1580   1.085       .  S
C1575      C1576   1.413       .  A
C1575      N1582   1.435       .  S
C1576      C1577   1.409       .  A
C1576      H1581   1.083       .  S
C1577      C1578   1.410       .  A
C1578      N1579   1.433       .  S
N1579      H1584   1.046       .  S
N1582      H1585   1.045   1_565  S
N1582      H1586   1.047       .  S
C1587      C1588   1.404       .  A
C1587      C1592   1.398       .  A
C1587      H1594   1.082       .  S
C1588      C1589   1.413       .  A
C1589      C1590   1.402       .  A
C1589      N1596   1.433       .  S
C1590      C1591   1.408       .  A
C1590      H1595   1.084       .  S
C1591      C1592   1.409       .  A
C1592      N1593   1.439       .  S
N1593      H1597   1.045       .  S
N1593      H1598   1.046       .  S
N1596      H1599   1.046       .  S
N1596      H1600   1.045       .  S
C1601      C1602   1.401       .  A
C1601      C1606   1.404       .  A
C1601      H1608   1.084       .  S
C1602      C1603   1.407       .  A
C1603      C1604   1.403       .  A
C1603      N1610   1.437       .  S
C1604      C1605   1.403       .  A
C1604      H1609   1.084       .  S
C1605      C1606   1.412       .  A
C1606      N1607   1.432       .  S
N1607      H1611   1.045       .  S
N1607      H1612   1.045       .  S
N1610      H1613   1.046       .  S
N1610      H1614   1.045       .  S
C1615      C1616   1.403       .  A
C1615      C1620   1.412       .  A
C1615      H1622   1.084       .  S
C1616      C1617   1.409       .  A
C1617      C1618   1.394       .  A
C1617      N1624   1.430   1_565  S
C1618      C1619   1.406       .  A
C1618      H1623   1.084   1_565  S
C1619      C1620   1.418       .  A
C1620      N1621   1.437       .  S
N1621      H1625   1.046       .  S
N1621      H1626   1.045       .  S
N1624      H1627   1.045       .  S
N1624      H1628   1.044   1_545  S
C1629      C1630   1.406       .  A
C1629      C1634   1.401       .  A
C1629      H1636   1.084       .  S
C1630      C1631   1.417   1_565  A
C1631      C1632   1.408       .  A
C1631      N1638   1.431       .  S
C1632      C1633   1.408   1_545  A
C1632      H1637   1.084       .  S
C1633      C1634   1.413       .  A
C1634      N1635   1.434       .  S
N1635      H1639   1.045       .  S
N1635      H1640   1.046       .  S
N1638      H1641   1.045       .  S
N1638      H1642   1.045       .  S
C1643      C1644   1.407       .  A
C1643      C1648   1.404       .  A
C1643      H1650   1.084       .  S
C1644      C1645   1.414       .  A
C1645      C1646   1.398       .  A
C1645      N1652   1.432       .  S
C1646      C1647   1.405       .  A
C1646      H1651   1.084       .  S
C1647      C1648   1.410       .  A
C1648      N1649   1.438       .  S
N1649      H1653   1.047       .  S
N1649      H1654   1.045       .  S
N1652      H1655   1.043       .  S
N1652      H1656   1.047       .  S
C1657      C1658   1.406       .  A
C1657      C1662   1.412       .  A
C1657      H1664   1.084       .  S
C1658      C1659   1.404       .  A
C1659      C1660   1.402       .  A
C1659      N1666   1.433       .  S
C1660      C1661   1.405       .  A
C1660      H1665   1.084       .  S
C1661      C1662   1.411       .  A
C1662      N1663   1.438       .  S
N1663      H1667   1.045       .  S
N1663      H1668   1.046       .  S
N1666      H1669   1.045       .  S
N1666      H1670   1.046       .  S
C1671      C1672   1.404       .  A
C1671      C1676   1.413       .  A
C1671      H1678   1.084       .  S
C1672      C1673   1.411       .  A
C1673      C1674   1.405       .  A
C1673      N1680   1.432       .  S
C1674      C1675   1.401       .  A
C1674      H1679   1.084       .  S
C1675      C1676   1.413       .  A
C1676      N1677   1.437       .  S
N1677      H1681   1.046       .  S
N1677      H1682   1.046       .  S
N1680      H1683   1.046       .  S
N1680      H1684   1.045   1_556  S
C1685      C1686   1.408       .  A
C1685      C1690   1.402       .  A
C1685      H1692   1.083       .  S
C1686      C1687   1.415       .  A
C1687      C1688   1.411       .  A
C1687      N1694   1.438       .  S
C1688      C1689   1.408       .  A
C1688      H1693   1.084       .  S
C1689      C1690   1.411       .  A
C1690      N1691   1.438       .  S
N1691      H1695   1.045       .  S
N1691      H1696   1.046       .  S
N1694      H1698   1.046       .  S
C1699      C1700   1.407       .  A
C1699      C1704   1.411       .  A
C1699      H1706   1.084       .  S
C1700      C1701   1.416       .  A
C1701      C1702   1.404       .  A
C1701      N1708   1.438       .  S
C1702      C1703   1.399       .  A
C1702      H1707   1.084       .  S
C1703      C1704   1.411       .  A
C1704      N1705   1.437       .  S
N1705      H1709   1.046       .  S
N1705      H1710   1.044       .  S
N1708      H1711   1.045       .  S
N1708      H1712   1.046       .  S
C1713      C1714   1.401       .  A
C1713      C1718   1.406       .  A
C1713      H1720   1.084       .  S
C1714      C1715   1.413       .  A
C1715      C1716   1.411       .  A
C1715      N1722   1.438       .  S
C1716      C1717   1.403       .  A
C1716      H1721   1.084       .  S
C1717      C1718   1.409       .  A
C1718      N1719   1.432       .  S
N1719      H1723   1.045       .  S
N1719      H1724   1.046       .  S
N1722      H1725   1.046       .  S
N1722      H1726   1.046       .  S
C1727      C1728   1.401       .  A
C1727      C1732   1.404       .  A
C1727      H1734   1.084       .  S
C1728      C1729   1.409       .  A
C1729      C1730   1.404       .  A
C1729      N1736   1.439       .  S
C1730      C1731   1.408       .  A
C1730      H1735   1.083       .  S
C1731      C1732   1.412       .  A
C1732      N1733   1.432       .  S
N1733      H1737   1.045       .  S
N1733      H1738   1.045       .  S
N1736      H1739   1.045       .  S
N1736      H1740   1.046       .  S
C1741      C1742   1.404       .  A
C1741      C1746   1.411       .  A
C1741      H1748   1.084       .  S
C1742      C1743   1.407       .  A
C1743      C1744   1.397       .  A
C1743      N1750   1.434       .  S
C1744      C1745   1.402       .  A
C1744      H1749   1.085       .  S
C1745      C1746   1.411       .  A
C1746      N1747   1.437       .  S
N1747      H1751   1.046       .  S
N1747      H1752   1.045       .  S
N1750      H1753   1.045       .  S
N1750      H1754   1.046       .  S
C1755      C1756   1.400       .  A
C1755      C1760   1.400       .  A
C1755      H1762   1.084       .  S
C1756      C1757   1.414       .  A
C1757      C1758   1.408       .  A
C1757      N1764   1.431       .  S
C1758      C1759   1.404       .  A
C1758      H1763   1.084       .  S
C1759      C1760   1.415       .  A
C1760      N1761   1.432       .  S
N1761      H1765   1.046       .  S
N1761      H1766   1.044       .  S
N1764      H1767   1.046       .  S
N1764      H1768   1.046       .  S
C1769      C1770   1.403       .  A
C1769      C1774   1.404       .  A
C1769      H1776   1.083       .  S
C1770      C1771   1.414       .  A
C1771      C1772   1.400       .  A
C1771      N1778   1.434       .  S
C1772      H1777   1.084       .  S
N1775      H1779   1.046       .  S
N1775      H1780   1.045       .  S
N1778      H1781   1.046   1_545  S
N1778      H1782   1.044       .  S
C1783      C1788   1.396   1_554  A
C1783      H1790   1.085       .  S
C1784      C1785   1.411       .  A
C1785      N1792   1.437       .  S
C1786      C1787   1.407       .  A
C1786      H1791   1.084       .  S
C1787      C1788   1.416   1_565  A
C1788      N1789   1.432       .  S
N1789      H1793   1.043       .  S
N1789      H1794   1.045   1_545  S
N1792      H1795   1.045       .  S
N1792      H1796   1.046       .  S
C1797      C1798   1.402   1_545  A
C1797      C1802   1.403       .  A
C1797      H1804   1.084       .  S
C1798      C1799   1.410       .  A
C1799      C1800   1.404       .  A
C1799      N1806   1.432       .  S
C1800      C1801   1.401       .  A
C1800      H1805   1.084       .  S
C1801      C1802   1.411   1_565  A
C1802      N1803   1.433       .  S
N1803      H1807   1.045       .  S
N1803      H1808   1.046       .  S
N1806      H1809   1.046       .  S
N1806      H1810   1.045       .  S
C1811      C1812   1.402       .  A
C1811      C1816   1.397       .  A
C1811      H1818   1.085       .  S
C1812      C1813   1.410       .  A
C1813      C1814   1.413       .  A
C1813      N1820   1.436       .  S
C1814      C1815   1.406       .  A
C1814      H1819   1.084       .  S
C1815      C1816   1.407       .  A
C1816      N1817   1.434       .  S
N1817      H1821   1.045   1_556  S
N1817      H1822   1.046       .  S
N1820      H1823   1.045       .  S
N1820      H1824   1.046       .  S
C1825      C1826   1.406       .  A
C1825      C1830   1.407       .  A
C1825      H1832   1.084       .  S
C1826      C1827   1.411       .  A
C1827      C1828   1.403       .  A
C1827      N1834   1.432       .  S
C1828      C1829   1.402       .  A
C1828      H1833   1.084       .  S
C1829      C1830   1.411       .  A
C1830      N1831   1.438       .  S
N1831      H1835   1.046       .  S
N1831      H1836   1.045       .  S
N1834      H1837   1.045       .  S
N1834      H1838   1.045       .  S
C1839      C1840   1.402       .  A
C1839      C1844   1.400       .  A
C1839      H1846   1.084       .  S
C1840      C1841   1.413       .  A
C1841      C1842   1.414       .  A
C1841      N1848   1.438       .  S
C1842      C1843   1.405       .  A
C1842      H1847   1.084       .  S
C1843      C1844   1.410       .  A
C1844      N1845   1.439       .  S
N1845      H1849   1.045       .  S
N1845      H1850   1.045       .  S
N1848      H1851   1.047       .  S
N1848      H1852   1.045       .  S
C1853      C1854   1.402       .  A
C1853      C1858   1.409       .  A
C1853      H1860   1.084       .  S
C1854      C1855   1.408       .  A
C1855      C1856   1.399       .  A
C1855      N1862   1.433       .  S
C1856      C1857   1.405       .  A
C1856      H1861   1.084       .  S
C1857      C1858   1.417       .  A
C1858      N1859   1.438       .  S
N1859      H1863   1.046       .  S
N1859      H1864   1.045       .  S
N1862      H1865   1.045       .  S
N1862      H1866   1.046       .  S
C1867      C1868   1.403       .  A
C1867      C1872   1.401       .  A
C1867      H1874   1.084       .  S
C1868      C1869   1.414       .  A
C1869      C1870   1.392       .  A
C1869      N1876   1.433       .  S
C1870      C1871   1.402       .  A
C1870      H1875   1.085       .  S
C1871      C1872   1.411       .  A
C1872      N1873   1.438       .  S
N1873      H1877   1.046       .  S
N1873      H1878   1.045       .  S
N1876      H1879   1.047       .  S
N1876      H1880   1.043       .  S
C1881      C1882   1.399       .  A
C1881      C1886   1.400       .  A
C1881      H1888   1.085       .  S
C1882      C1883   1.408   1_655  A
C1883      C1884   1.405       .  A
C1883      N1890   1.432       .  S
C1884      C1885   1.403   1_455  A
C1884      H1889   1.084       .  S
C1885      C1886   1.412       .  A
C1886      N1887   1.432       .  S
N1887      H1891   1.046       .  S
N1890      H1893   1.046       .  S
N1890      H1894   1.045       .  S
C1895      C1896   1.401   1_455  A
C1895      C1900   1.406       .  A
C1895      H1902   1.084       .  S
C1896      C1897   1.413       .  A
C1897      C1898   1.409       .  A
C1897      N1904   1.438       .  S
C1898      C1899   1.404       .  A
C1898      H1903   1.084       .  S
C1899      C1900   1.413   1_655  A
C1900      N1901   1.432       .  S
N1901      H1905   1.046       .  S
N1901      H1906   1.046       .  S
N1904      H1907   1.045       .  S
N1904      H1908   1.046       .  S
C1909      C1910   1.403       .  A
C1909      C1914   1.406       .  A
C1909      H1916   1.084       .  S
C1910      C1911   1.407       .  A
C1911      C1912   1.409       .  A
C1911      N1918   1.432       .  S
C1912      C1913   1.404       .  A
C1912      H1917   1.084       .  S
C1913      C1914   1.409       .  A
C1914      N1915   1.438       .  S
N1915      H1919   1.045       .  S
N1915      H1920   1.046       .  S
N1918      H1921   1.046       .  S
N1918      H1922   1.045       .  S
C1923      C1924   1.412       .  A
C1923      C1928   1.404       .  A
C1923      H1930   1.084       .  S
C1924      C1925   1.409       .  A
C1925      C1926   1.397       .  A
C1925      N1932   1.433       .  S
C1926      C1927   1.406       .  A
C1926      H1931   1.084       .  S
C1927      C1928   1.411       .  A
C1928      N1929   1.432       .  S
N1929      H1933   1.044       .  S
N1929      H1934   1.046       .  S
N1932      H1935   1.046       .  S
N1932      H1936   1.046       .  S
C1937      C1938   1.402       .  A
C1937      C1942   1.400       .  A
C1937      H1944   1.084       .  S
C1938      C1939   1.419       .  A
C1939      C1940   1.406       .  A
C1939      N1946   1.439       .  S
C1940      C1941   1.403       .  A
C1940      H1945   1.083       .  S
C1941      C1942   1.413       .  A
C1942      N1943   1.433       .  S
N1943      H1947   1.046       .  S
N1943      H1948   1.046       .  S
N1946      H1949   1.046       .  S
N1946      H1950   1.045       .  S
C1951      C1952   1.402       .  A
C1951      C1956   1.402       .  A
C1951      H1958   1.084       .  S
C1952      C1953   1.406       .  A
C1953      N1960   1.433       .  S
C1954      C1955   1.404       .  A
C1954      H1959   1.084       .  S
C1956      N1957   1.433       .  S
N1957      H1961   1.046       .  S
N1957      H1962   1.045       .  S
N1960      H1963   1.046       .  S
N1960      H1964   1.045       .  S
C1965      C1966   1.401       .  A
C1965      C1970   1.405       .  A
C1965      H1972   1.084       .  S
C1966      C1967   1.409       .  A
C1967      C1968   1.407       .  A
C1967      N1974   1.432       .  S
C1968      C1969   1.402       .  A
C1968      H1973   1.084       .  S
C1969      C1970   1.412       .  A
C1970      N1971   1.433       .  S
N1971      H1975   1.046       .  S
N1971      H1976   1.045       .  S
N1974      H1977   1.046       .  S
N1974      H1978   1.045       .  S
C1979      C1980   1.407       .  A
C1979      C1984   1.397       .  A
C1979      H1986   1.083       .  S
C1980      C1981   1.407       .  A
C1981      C1982   1.410       .  A
C1981      N1988   1.432       .  S
C1982      C1983   1.412       .  A
C1982      H1987   1.084       .  S
C1983      C1984   1.408       .  A
C1984      N1985   1.433       .  S
N1985      H1989   1.046       .  S
N1985      H1990   1.046       .  S
N1988      H1991   1.045       .  S
N1988      H1992   1.046       .  S
C1993      C1994   1.404       .  A
C1993      C1998   1.401       .  A
C1993      H2000   1.084       .  S
C1994      C1995   1.416       .  A
C1995      C1996   1.407       .  A
C1995      N2002   1.438       .  S
C1996      C1997   1.404       .  A
C1996      H2001   1.084       .  S
C1997      C1998   1.412       .  A
C1998      N1999   1.432       .  S
N1999      H2003   1.044       .  S
N1999      H2004   1.045       .  S
N2002      H2005   1.045       .  S
N2002      H2006   1.045       .  S
C2007      C2008   1.406       .  A
C2007      C2012   1.406       .  A
C2007      H2014   1.084       .  S
C2008      C2009   1.411       .  A
C2009      C2010   1.402       .  A
C2009      N2016   1.433       .  S
C2010      C2011   1.406       .  A
C2010      H2015   1.084       .  S
C2011      C2012   1.410       .  A
C2012      N2013   1.432       .  S
N2013      H2017   1.046       .  S
N2013      H2018   1.046       .  S
N2016      H2019   1.046       .  S
N2016      H2020   1.046       .  S
C2021      C2022   1.411       .  A
C2021      H2028   1.083       .  S
C2022      C2023   1.417       .  A
C2023      C2024   1.405   1_556  A
C2023      N2030   1.432       .  S
C2025      C2026   1.410       .  A
C2026      N2027   1.437       .  S
N2027      H2031   1.045       .  S
N2027      H2032   1.046       .  S
N2030      H2033   1.046       .  S
N2030      H2034   1.046       .  S
C2035      C2036   1.401       .  A
C2035      C2040   1.409       .  A
C2035      H2042   1.084       .  S
C2036      C2037   1.410       .  A
C2037      C2038   1.402       .  A
C2037      N2044   1.433       .  S
C2038      C2039   1.410       .  A
C2038      H2043   1.083       .  S
C2039      C2040   1.418       .  A
C2040      N2041   1.432       .  S
N2041      H2045   1.045       .  S
N2041      H2046   1.046       .  S
N2044      H2047   1.046       .  S
N2044      H2048   1.045       .  S
