geometry optimzed in LAMMPS
_audit_creation_date              2020-11-30 
_audit_creation_method            'lammps2cif' 
_symmetry_space_group_name_H-M    'P1' 
_symmetry_Int_Tables_number       1 
_symmetry_cell_setting            triclinic 
loop_ 
_symmetry_equiv_pos_as_xyz 
  x,y,z 
_cell_length_a                    61.00502809 
_cell_length_b                    61.77123791456564 
_cell_length_c                    46.41187597982315 
_cell_angle_alpha                 90.07506724139861 
_cell_angle_beta                  90.04831614775253 
_cell_angle_gamma                 119.82304123485912 
loop_ 
_atom_site_label 
_atom_site_type_symbol 
_atom_site_fract_x 
_atom_site_fract_y 
_atom_site_fract_z 
_atom_site_charge 
O1          O  0.12379615  0.46700188  0.29954154    -0.57500
C2          C  0.07254886  0.40942078  0.32353518     0.75100
O3          O  0.06622128  0.39971510  0.25463723    -0.58700
C4          C  0.12443594  0.47861847  0.27687304     0.75100
C5          C  0.14847478  0.41796363  0.29643101     0.77500
Cd6        Cd  0.10747620  0.42583798  0.27724397     1.37500
O7          O  0.08308752  0.43180453  0.31490613    -0.57500
O8          O  0.15238867  0.43523485  0.27893928    -0.56300
C9          C  0.07326191  0.39963015  0.22914717     0.77400
O10         O  0.12560894  0.40276414  0.30195255    -0.58700
O11         O  0.07890681  0.39509708  0.31118189    -0.57200
O12         O  0.11823309  0.46603697  0.25369862    -0.57200
O13         O  0.09700798  0.41124411  0.22514931    -0.56300
O14         O  0.35254182  0.46402674  0.47740565    -0.57500
C15         C  0.34022348  0.40167714  0.40815683     0.75100
O16         O  0.32701068  0.41668123  0.50658694    -0.58700
C17         C  0.36599419  0.47409080  0.45524844     0.75100
C18         C  0.28046955  0.42219211  0.43010257     0.77500
Cd19       Cd  0.32520685  0.42300288  0.45320581     1.37500
O20         O  0.35617433  0.42012280  0.42277589    -0.57500
O21         O  0.27835910  0.40318723  0.44295584    -0.56300
C22         C  0.32827081  0.39688994  0.50388661     0.77400
O23         O  0.30182561  0.44164549  0.43192673    -0.58700
O24         O  0.31720363  0.39313892  0.41439913    -0.57200
O25         O  0.36014529  0.46070993  0.43278530    -0.57200
O26         O  0.32573476  0.38843238  0.47859426    -0.56300
O27         O  0.57747635  0.65905940  0.00552778    -0.57500
C28         C  0.52945599  0.63742569  0.45686106     0.75100
O29         O  0.60426557  0.72136116  0.47553358    -0.58700
C30         C  0.60097211  0.66859523  0.00987021     0.75100
C31         C  0.60650916  0.66653543  0.41212914     0.77500
Cd32       Cd  0.58153558  0.67737335  0.45883307     1.37500
O33         O  0.54166759  0.64511281  0.48020050    -0.57500
O34         O  0.60200715  0.65638390  0.43660343    -0.56300
C35         C  0.58575345  0.72504956  0.47329408     0.77400
O36         O  0.59973456  0.68273854  0.40850541    -0.58700
O37         O  0.54086797  0.64914439  0.43426698    -0.57200
O38         O  0.61626626  0.68489949  0.49177726    -0.57200
O39         O  0.56628651  0.70789564  0.46103643    -0.56300
O40         O  0.53781828  0.90105877  0.08959872    -0.57500
C41         C  0.59772621  0.94003073  0.06475742     0.75100
O42         O  0.61072496  0.93960271  0.13334736    -0.58700
C43         C  0.52380830  0.89145989  0.11132720     0.75100
C44         C  0.57688367  0.85950510  0.08756277     0.77500
Cd45       Cd  0.57591467  0.90346766  0.10919383     1.37500
O46         O  0.58033519  0.93844225  0.08096121    -0.57500
O47         O  0.55869865  0.86348524  0.08396644    -0.56300
C48         C  0.60286076  0.93419490  0.15891823     0.77400
O49         O  0.59441634  0.87478246  0.10398135    -0.58700
O50         O  0.60476279  0.92412045  0.06866285    -0.57200
O51         O  0.53383477  0.88708284  0.13288430    -0.57200
O52         O  0.58345881  0.91288017  0.16246439    -0.56300
O53         O  0.34810473  0.88606077  0.14017752    -0.57500
C54         C  0.33595472  0.93237869  0.16958137     0.75100
O55         O  0.33760264  0.93950866  0.10112314    -0.58700
C56         C  0.35604553  0.88368729  0.11591767     0.75100
C57         C  0.27176278  0.85685736  0.14468110     0.77500
Cd58       Cd  0.31834743  0.89855358  0.12262770     1.37500
O59         O  0.34766239  0.92133179  0.16137742    -0.57500
O60         O  0.28188394  0.85433469  0.12201160    -0.56300
C61         C  0.32481322  0.93480531  0.07832682     0.77400
O62         O  0.28144683  0.87874755  0.15453751    -0.58700
O63         O  0.31564303  0.92702107  0.15644756    -0.57200
O64         O  0.34534780  0.88666159  0.09405428    -0.57200
O65         O  0.30762200  0.91219525  0.07495708    -0.56300
O66         O  0.06451018  0.63867905  0.26188763    -0.57500
C67         C  0.11547174  0.63436549  0.29116395     0.75100
O68         O  0.13168448  0.71684428  0.28709465    -0.58700
C69         C  0.05979195  0.65348844  0.24791369     0.75100
C70         C  0.06738289  0.66557930  0.33967694     0.77500
Cd71       Cd  0.09882872  0.67050827  0.28996615     1.37500
O72         O  0.12229086  0.65044870  0.31121920    -0.57500
O73         O  0.06258390  0.66933967  0.31431841    -0.56300
C74         C  0.14053974  0.71425834  0.26337920     0.77400
O75         O  0.08855569  0.66668116  0.34324548    -0.58700
O76         O  0.10084759  0.63494483  0.27230738    -0.57200
O77         O  0.07340941  0.67655550  0.25339212    -0.57200
O78         O  0.13083525  0.69228636  0.25392802    -0.56300
O79         O  0.88599534  0.53082997  0.01560556    -0.57500
C80         C  0.92948553  0.59014614  0.09223063     0.75100
O81         O  0.91029558  0.58761583  0.49127961    -0.58700
C82         C  0.88778471  0.51971740  0.03769580     0.75100
C83         C  0.85630258  0.57574236  0.05801300     0.77500
Cd84       Cd  0.89974383  0.57113555  0.04131342     1.37500
O85         O  0.91554803  0.56699739  0.08778028    -0.57500
O86         O  0.87810242  0.59457100  0.05560420    -0.56300
C87         C  0.93360488  0.59466107  0.49438836     0.77400
O88         O  0.85387494  0.55539892  0.04880747    -0.58700
O89         O  0.92947632  0.60466857  0.07302402    -0.57200
O90         O  0.89482812  0.53233134  0.06070785    -0.57200
O91         O  0.94163702  0.59454169  0.01900668    -0.56300
O92         O  0.64686921  0.53162991  0.22778400    -0.57500
C93         C  0.66310032  0.59615688  0.15969018     0.75100
O94         O  0.68020993  0.58593032  0.25798296    -0.58700
C95         C  0.63410836  0.52224113  0.20494146     0.75100
C96         C  0.72166571  0.57557380  0.18412553     0.77500
Cd97       Cd  0.67548217  0.57330412  0.20518725     1.37500
O98         O  0.64773473  0.57461803  0.16905803    -0.57500
O99         O  0.70230549  0.55520502  0.19079272    -0.56300
C100        C  0.66983685  0.59922981  0.25474408     0.77400
O101        O  0.72092807  0.59509160  0.19055338    -0.58700
O102        O  0.68503555  0.60691429  0.17059779    -0.57200
O103        O  0.64103040  0.53618246  0.18298640    -0.57200
O104        O  0.66334266  0.60073175  0.22939775    -0.56300
O105        O  0.63355422  0.09700199  0.38086878    -0.57500
C106        C  0.66405079  0.06943399  0.40993020     0.75100
O107        O  0.67673237  0.09092171  0.30922694    -0.58700
C108        C  0.62988629  0.10985704  0.36238056     0.75100
C109        C  0.72046456  0.14389193  0.38109339     0.77500
Cd110      Cd  0.67252452  0.10114565  0.36173107     1.37500
O111        O  0.65479910  0.08372142  0.40821493    -0.57500
O112        O  0.70090627  0.14554022  0.37653982    -0.56300
C113        C  0.66242913  0.06756113  0.31269092     0.77400
O114        O  0.71898618  0.12357364  0.37331415    -0.58700
O115        O  0.67847430  0.07064024  0.38964667    -0.57200
O116        O  0.64632034  0.11934961  0.34252254    -0.57200
O117        O  0.65371830  0.06081747  0.33771695    -0.56300
O118        O  0.93494627  0.35451065  0.49231184    -0.57500
C119        C  0.88858867  0.35837664  0.03120489     0.75100
O120        O  0.88346080  0.27696712  0.00742595    -0.58700
C121        C  0.93854998  0.34050164  0.47543445     0.75100
C122        C  0.93928903  0.32969851  0.07361942     0.77500
Cd123      Cd  0.90371771  0.32108084  0.02645417     1.37500
O124        O  0.89550173  0.35318388  0.00775881    -0.57500
O125        O  0.91595242  0.32082565  0.07886036    -0.56300
C126        C  0.86133562  0.27371622  0.00595420     0.77400
O127        O  0.94524310  0.33269580  0.04733683    -0.58700
O128        O  0.88783290  0.34563582  0.05302088    -0.57200
O129        O  0.93006649  0.31835762  0.98903590    -0.57200
O130        O  0.86024066  0.29358598  0.51130328    -0.56300
O131        O  0.46157318  0.34993528  0.22390128    -0.57500
C132        C  0.40068799  0.33248801  0.25175317     0.75100
O133        O  0.40587805  0.34566420  0.17917576    -0.58700
C134        C  0.47349574  0.35687015  0.20034417     0.75100
C135        C  0.41432359  0.27193403  0.22121459     0.77500
Cd136      Cd  0.42073251  0.32010592  0.20322332     1.37500
O137        O  0.42400004  0.34374955  0.24591532    -0.57500
O138        O  0.43540226  0.28952941  0.21274204    -0.56300
C139        C  0.39831669  0.33375550  0.15580145     0.77400
O140        O  0.39564204  0.27522641  0.21748535    -0.58700
O141        O  0.38634045  0.31460399  0.23534538    -0.57200
O142        O  0.46143587  0.34541337  0.17782038    -0.57200
O143        O  0.40099322  0.31466763  0.15350594    -0.56300
O144        O  0.41433964  0.06269107  0.34562539    -0.57500
C145        C  0.46527470  0.10951774  0.37565198     0.75100
O146        O  0.38933888  0.11778042  0.35679829    -0.58700
C147        C  0.39695519  0.05922240  0.32820631     0.75100
C148        C  0.38440487  0.06666594  0.42282317     0.77500
Cd149      Cd  0.41257587  0.09567565  0.37289332     1.37500
O150        O  0.45354073  0.10652604  0.35217993    -0.57500
O151        O  0.37693039  0.06002910  0.39728160    -0.56300
C152        C  0.40905552  0.13809062  0.35079399     0.77400
O153        O  0.40388955  0.08801541  0.42572122    -0.58700
O154        O  0.45290709  0.10701614  0.39859361    -0.57200
O155        O  0.38685955  0.07263812  0.33162980    -0.57200
O156        O  0.42964011  0.13966633  0.35857911    -0.56300
C157        C  0.40852892  0.15817925  0.33366676    -0.01000
C158        C  0.38576027  0.15738707  0.32671291    -0.09000
C159        C  0.38535743  0.17486081  0.30768689    -0.17900
C160        C  0.40783091  0.19358689  0.29460713     0.04500
C161        C  0.43082811  0.19436246  0.30204363     0.18700
C162        C  0.43096977  0.17696629  0.32142126    -0.19300
C163        C  0.45366119  0.21235435  0.28987529    -0.20600
C164        C  0.45432327  0.22993974  0.27073116    -0.19100
C165        C  0.43214327  0.22995001  0.26305615     0.20100
C166        C  0.40849112  0.21162944  0.27457094     0.02200
C167        C  0.38669815  0.21241421  0.26565565    -0.13800
C168        C  0.38851363  0.23120356  0.24718848    -0.11500
C169        C  0.41199029  0.24975278  0.23673426     0.01800
C170        C  0.43365496  0.24860895  0.24437766    -0.23700
H171        H  0.36811062  0.14295586  0.33565819     0.09800
H172        H  0.36717329  0.17308466  0.30338504     0.13300
H173        H  0.44868022  0.17762024  0.32627442     0.12100
H174        H  0.47122408  0.21293192  0.29533989     0.13200
H175        H  0.47239429  0.24376261  0.26198602     0.12300
H176        H  0.36804061  0.19903146  0.27300834     0.09400
H177        H  0.37145561  0.23161593  0.24176070     0.12600
H178        H  0.45196303  0.26286922  0.23663116     0.14500
C179        C  0.60736622  0.11310654  0.36444087    -0.01000
C180        C  0.60120122  0.12486362  0.34268002    -0.09000
C181        C  0.57928671  0.12680161  0.34460988    -0.17900
C182        C  0.56276038  0.11697820  0.36853519     0.04500
C183        C  0.56945660  0.10553992  0.39076150     0.18700
C184        C  0.59144267  0.10373631  0.38851655    -0.19300
C185        C  0.55399512  0.09558099  0.41500176    -0.20600
C186        C  0.53163896  0.09623835  0.41747737    -0.19100
C187        C  0.52407459  0.10677026  0.39571510     0.20100
C188        C  0.53961760  0.11753651  0.37102432     0.02200
C189        C  0.53088842  0.12769227  0.34959147    -0.13800
C190        C  0.50719372  0.12590955  0.35182069    -0.11500
C191        C  0.49166294  0.11457025  0.37572025     0.01800
C192        C  0.50057330  0.10576074  0.39804071    -0.23700
H193        H  0.61318593  0.13231879  0.32390853     0.09800
H194        H  0.57569421  0.13590593  0.32692434     0.13300
H195        H  0.59603457  0.09470876  0.40562606     0.12100
H196        H  0.55908491  0.08692313  0.43205892     0.13200
H197        H  0.51993884  0.08802036  0.43633638     0.12300
H198        H  0.54159944  0.13648073  0.33043917     0.09400
H199        H  0.50073779  0.13302340  0.33440921     0.12600
H200        H  0.48857091  0.09680989  0.41651662     0.14500
C201        C  0.84066487  0.25355071  0.48794465    -0.01000
C202        C  0.84297056  0.23347457  0.47742288    -0.09000
C203        C  0.82425398  0.21522689  0.45957860    -0.17900
C204        C  0.80256882  0.21659862  0.45141469     0.04500
C205        C  0.80015900  0.23673831  0.46267340     0.18700
C206        C  0.81894130  0.25473501  0.48072002    -0.19300
C207        C  0.77917347  0.23912748  0.45552715    -0.20600
C208        C  0.76040310  0.22194073  0.43742931    -0.19100
C209        C  0.76209382  0.20189355  0.42585861     0.20100
C210        C  0.78321384  0.19889981  0.43251912     0.02200
C211        C  0.78386615  0.17830059  0.41999959    -0.13800
C212        C  0.76406459  0.16111321  0.40241037    -0.11500
C213        C  0.74301633  0.16386545  0.39645201     0.01800
C214        C  0.74246115  0.18459880  0.40800284    -0.23700
H215        H  0.86152707  0.23374423  0.97993011     0.09800
H216        H  0.82743248  0.20047757  0.45218911     0.13300
H217        H  0.81692927  0.27021503  0.48849055     0.12100
H218        H  0.77725211  0.25445857  0.46399943     0.13200
H219        H  0.74437878  0.22434635  0.43247506     0.12300
H220        H  0.79925591  0.17479517  0.42373279     0.09400
H221        H  0.76499694  0.14523618  0.39396795     0.12600
H222        H  0.72626982  0.18692803  0.40380399     0.14500
C223        C  0.61201272  0.49659954  0.20348777    -0.01000
C224        C  0.59950555  0.48739324  0.17714284    -0.09000
C225        C  0.57812906  0.46376279  0.17513794    -0.17900
C226        C  0.56828076  0.44835033  0.19964334     0.04500
C227        C  0.58095104  0.45770361  0.22641122     0.18700
C228        C  0.60269436  0.48153148  0.22806610    -0.19300
C229        C  0.57157050  0.44339876  0.25145619    -0.20600
C230        C  0.54949318  0.42032388  0.25066666    -0.19100
C231        C  0.53640931  0.41078664  0.22473831     0.20100
C232        C  0.54594385  0.42433046  0.19869244     0.02200
C233        C  0.53243566  0.41339021  0.17293928    -0.13800
C234        C  0.50965849  0.39076124  0.17336047    -0.11500
C235        C  0.49957010  0.37829793  0.19933063     0.01800
C236        C  0.51341634  0.38808649  0.22484753    -0.23700
H237        H  0.60615455  0.49863272  0.15781332     0.09800
H238        H  0.56952111  0.45832429  0.15416483     0.13300
H239        H  0.61207897  0.48851513  0.24860469     0.12100
H240        H  0.58110820  0.45031737  0.27192442     0.13200
H241        H  0.54244485  0.40998494  0.27056436     0.12300
H242        H  0.53873710  0.42200859  0.15216762     0.09400
H243        H  0.49938409  0.38353251  0.15335656     0.12600
H244        H  0.50588012  0.37841717  0.24504305     0.14500
C245        C  0.88270968  0.37890164  0.03277646    -0.01000
C246        C  0.87839471  0.38696172  0.05927470    -0.09000
C247        C  0.87589498  0.40824660  0.06094376    -0.17900
C248        C  0.87780955  0.42227380  0.03599496     0.04500
C249        C  0.88049885  0.41300758  0.00897990     0.18700
C250        C  0.88298049  0.39162552  0.00763852    -0.19300
C251        C  0.88147878  0.42554531  0.98348827    -0.20600
C252        C  0.88084558  0.44771877  0.98427852    -0.19100
C253        C  0.87976177  0.45818010  0.01061767     0.20100
C254        C  0.87797490  0.44550418  0.03687686     0.02200
C255        C  0.87769271  0.45725275  0.06291157    -0.13800
C256        C  0.88021281  0.48097771  0.06288519    -0.11500
C257        C  0.88258646  0.49363240  0.03701254     0.01800
C258        C  0.88157246  0.48179183  0.01089614    -0.23700
H259        H  0.87768810  0.37721331  0.07893946     0.09800
H260        H  0.87286583  0.41344328  0.08211263     0.13300
H261        H  0.88589732  0.38531284  0.98692777     0.12100
H262        H  0.88321016  0.41838318  0.96279511     0.13200
H263        H  0.88208423  0.45718422  0.96418780     0.12300
H264        H  0.87646084  0.44900989  0.08371615     0.09400
H265        H  0.88075089  0.48966267  0.08336722     0.12600
H266        H  0.88345478  0.49147931  0.99078656     0.14500
C267        C  0.74306530  0.57640855  0.16785235    -0.01000
C268        C  0.76464209  0.59923963  0.16142746    -0.09000
C269        C  0.78334244  0.60033185  0.14298718    -0.17900
C270        C  0.78093004  0.57849216  0.12997578     0.04500
C271        C  0.75919164  0.55534904  0.13695547     0.18700
C272        C  0.74073535  0.55451280  0.15581148    -0.19300
C273        C  0.75573138  0.53314210  0.12471155    -0.20600
C274        C  0.77344885  0.53331740  0.10575722    -0.19100
C275        C  0.79512433  0.55571349  0.09849344     0.20100
C276        C  0.79917564  0.57868323  0.11033079     0.02200
C277        C  0.82140324  0.60072790  0.10211391    -0.13800
C278        C  0.83922480  0.59983258  0.08390592    -0.11500
C279        C  0.83548874  0.57706174  0.07300708     0.01800
C280        C  0.81307691  0.55513311  0.07995764    -0.23700
H281        H  0.76686320  0.61646727  0.17023849     0.09800
H282        H  0.79926981  0.61858553  0.13901440     0.13300
H283        H  0.72401710  0.53674939  0.16032981     0.12100
H284        H  0.73916349  0.51545099  0.12985017     0.13200
H285        H  0.77022881  0.51575007  0.09682727     0.12300
H286        H  0.82581874  0.61890822  0.10984932     0.09400
H287        H  0.85641886  0.61704388  0.07905186     0.12600
H288        H  0.81003415  0.53736336  0.07188704     0.14500
C289        C  0.04834924  0.65886026  0.36304173    -0.01000
C290        C  0.02363459  0.65315445  0.35607444    -0.09000
C291        C  0.00453845  0.64416167  0.37686690    -0.17900
C292        C  0.00946726  0.64056482  0.40569764     0.04500
C293        C  0.03475491  0.64720496  0.41295997     0.18700
C294        C  0.05380419  0.65609702  0.39170727    -0.19300
C295        C  0.04079328  0.64447458  0.44131282    -0.20600
C296        C  0.02222030  0.63471329  0.46246844    -0.19100
C297        C  0.99702528  0.62720001  0.45582590     0.20100
C298        C  0.99022643  0.63022236  0.42745031     0.02200
C299        C  0.96440037  0.62224105  0.42208229    -0.13800
C300        C  0.94612205  0.61113340  0.44377984    -0.11500
C301        C  0.95289492  0.60766595  0.47151981     0.01800
C302        C  0.97851821  0.61617977  0.47739283    -0.23700
H303        H  0.01876110  0.65498904  0.33411196     0.09800
H304        H  0.98604034  0.63990723  0.36960412     0.13300
H305        H  0.07279998  0.66042156  0.39740810     0.12100
H306        H  0.06000703  0.64966147  0.44712704     0.13200
H307        H  0.02754563  0.63260707  0.48412132     0.12300
H308        H  0.95766273  0.62396939  0.40123111     0.09400
H309        H  0.92654032  0.60488383  0.43866742     0.12600
H310        H  0.98411460  0.61382977  0.49881425     0.14500
C311        C  0.03928714  0.64411627  0.22653713    -0.01000
C312        C  0.02281036  0.61843672  0.22396871    -0.09000
C313        C  0.00323991  0.60910536  0.20397202    -0.17900
C314        C  0.99964472  0.62529766  0.18559621     0.04500
C315        C  0.01672005  0.65137193  0.18791623     0.18700
C316        C  0.03611201  0.66054957  0.20855691    -0.19300
C317        C  0.01465914  0.66804060  0.16922911    -0.20600
C318        C  0.99648361  0.65925549  0.14757337    -0.19100
C319        C  0.97956043  0.63366879  0.14463570     0.20100
C320        C  0.98030863  0.61642027  0.16427857     0.02200
C321        C  0.96190070  0.59093984  0.16145041    -0.13800
C322        C  0.94489169  0.58270023  0.13859240    -0.11500
C323        C  0.94547684  0.59953114  0.11807573     0.01800
C324        C  0.96226666  0.62510091  0.12171158    -0.23700
H325        H  0.02501285  0.60537771  0.23752724     0.09800
H326        H  0.99168052  0.58911224  0.20303127     0.13300
H327        H  0.04901542  0.68046543  0.21025517     0.12100
H328        H  0.02760043  0.68794165  0.17089609     0.13200
H329        H  0.99580462  0.67253059  0.13287631     0.12300
H330        H  0.96023627  0.57686526  0.17635229     0.09400
H331        H  0.93159611  0.56291015  0.13663635     0.12600
H332        H  0.96243357  0.63829025  0.10619925     0.14500
C333        C  0.25086990  0.83549775  0.16015115    -0.01000
C334        C  0.24095436  0.81101619  0.15006282    -0.09000
C335        C  0.22319511  0.79075984  0.16629203    -0.17900
C336        C  0.21479497  0.79432746  0.19344334     0.04500
C337        C  0.22475245  0.81921408  0.20345007     0.18700
C338        C  0.24245280  0.83938374  0.18682111    -0.19300
C339        C  0.21720106  0.82386820  0.23016191    -0.20600
C340        C  0.19972076  0.80432514  0.24712523    -0.19100
C341        C  0.18936768  0.77956688  0.23791341     0.20100
C342        C  0.19691655  0.77420552  0.21101212     0.02200
C343        C  0.18616183  0.74892577  0.20285650    -0.13800
C344        C  0.16841805  0.72991890  0.22027546    -0.11500
C345        C  0.16060729  0.73518198  0.24653212     0.01800
C346        C  0.17134582  0.76013034  0.25533954    -0.23700
H347        H  0.24729113  0.80744015  0.12973727     0.09800
H348        H  0.21658906  0.77253308  0.15706468     0.13300
H349        H  0.25015085  0.85821329  0.19507217     0.12100
H350        H  0.22482865  0.84280969  0.23798029     0.13200
H351        H  0.19420919  0.80863075  0.26758902     0.12300
H352        H  0.19093539  0.74316307  0.18303319     0.09400
H353        H  0.16053306  0.71084957  0.21282870     0.12600
H354        H  0.16548290  0.76445676  0.27556351     0.14500
C355        C  0.34568581  0.95088588  0.19294798    -0.01000
C356        C  0.36829752  0.95672489  0.20691171    -0.09000
C357        C  0.37771728  0.97446462  0.22888354    -0.17900
C358        C  0.36464015  0.98691728  0.23755602     0.04500
C359        C  0.34200502  0.98128783  0.22272480     0.18700
C360        C  0.33271788  0.96333230  0.20082209    -0.19300
C361        C  0.32873216  0.99360827  0.22975860    -0.20600
C362        C  0.33742269  0.01146408  0.25139946    -0.19100
C363        C  0.35934434  0.01708586  0.26677246     0.20100
C364        C  0.37319752  0.00477611  0.26031500     0.02200
C365        C  0.39478981  0.01065747  0.27718488    -0.13800
C366        C  0.40237478  0.02823453  0.29928861    -0.11500
C367        C  0.38884098  0.04053709  0.30510420     0.01800
C368        C  0.36737301  0.03489176  0.28879025    -0.23700
H369        H  0.37883342  0.94757380  0.20081963     0.09800
H370        H  0.39530567  0.97809455  0.23842930     0.13300
H371        H  0.31536128  0.95912755  0.18979306     0.12100
H372        H  0.31154355  0.98945589  0.21839111     0.13200
H373        H  0.32679083  0.02077676  0.25632614     0.12300
H374        H  0.40604993  0.00187123  0.27411098     0.09400
H375        H  0.41899567  0.03227598  0.31179142     0.12600
H376        H  0.35669110  0.04421801  0.29340982     0.14500
C377        C  0.37196199  0.04960015  0.44754021    -0.01000
C378        C  0.38229387  0.05627904  0.47523347    -0.09000
C379        C  0.37326753  0.03898897  0.49774366    -0.17900
C380        C  0.35359826  0.01412427  0.49327308     0.04500
C381        C  0.34237754  0.00769667  0.46546126     0.18700
C382        C  0.35143608  0.02542995  0.44306168    -0.19300
C383        C  0.32288107  0.98332657  0.45987818    -0.20600
C384        C  0.31500601  0.96489532  0.48095537    -0.19100
C385        C  0.32639139  0.97051756  0.01023287     0.20100
C386        C  0.34646736  0.99495163  0.01683667     0.02200
C387        C  0.35758922  0.99896833  0.04441928    -0.13800
C388        C  0.34987777  0.97948192  0.06407369    -0.11500
C389        C  0.33072955  0.95517481  0.05728526     0.01800
C390        C  0.31865506  0.95092776  0.03043768    -0.23700
H391        H  0.39809476  0.07475494  0.47933635     0.09800
H392        H  0.38267557  0.04552991  0.51819929     0.13300
H393        H  0.34321387  0.01999516  0.42172213     0.12100
H394        H  0.31408580  0.97831090  0.43879155     0.13200
H395        H  0.30030530  0.94611412  0.47565575     0.12300
H396        H  0.37263760  0.01688350  0.05137799     0.09400
H397        H  0.35942904  0.98352180  0.08471726     0.12600
H398        H  0.30372431  0.93229342  0.02496381     0.14500
C399        C  0.65568277  0.04857898  0.28944536    -0.01000
C400        C  0.66765821  0.05455177  0.26255544    -0.09000
C401        C  0.66105258  0.03612844  0.24123664    -0.17900
C402        C  0.64195274  0.01102996  0.24609407     0.04500
C403        C  0.62981997  0.00519928  0.27336059     0.18700
C404        C  0.63684804  0.02375980  0.29458024    -0.19300
C405        C  0.61048453  0.98089277  0.27931232    -0.20600
C406        C  0.60249672  0.96222588  0.25854614    -0.19100
C407        C  0.61380442  0.96725704  0.23133538     0.20100
C408        C  0.63402333  0.99160870  0.22484717     0.02200
C409        C  0.64509758  0.99545686  0.19723948    -0.13800
C410        C  0.63567483  0.97637981  0.17659800    -0.11500
C411        C  0.61497706  0.95273697  0.18260269     0.01800
C412        C  0.60452841  0.94818389  0.21033416    -0.23700
H413        H  0.68227695  0.07350382  0.25800733     0.09800
H414        H  0.67103792  0.04214459  0.22108941     0.13300
H415        H  0.62729987  0.01881217  0.31522584     0.12100
H416        H  0.60119086  0.97634502  0.30010330     0.13200
H417        H  0.58718734  0.94374120  0.26374987     0.12300
H418        H  0.66081503  0.01312272  0.19079359     0.09400
H419        H  0.64425036  0.98047638  0.15542263     0.12600
H420        H  0.58854891  0.93002217  0.21530467     0.14500
C421        C  0.60935154  0.95972193  0.04284801    -0.01000
C422        C  0.62792360  0.96077351  0.02431148    -0.09000
C423        C  0.63917079  0.97969940  0.00386214    -0.17900
C424        C  0.63204440  0.99818479  0.00134397     0.04500
C425        C  0.61311977  0.99691007  0.02027931     0.18700
C426        C  0.60212359  0.97789845  0.04077677    -0.19300
C427        C  0.60494649  0.01437089  0.01841251    -0.20600
C428        C  0.61456673  0.03269039  0.99740376    -0.19100
C429        C  0.63236519  0.03270956  0.47678440     0.20100
C430        C  0.64061109  0.01485664  0.47751778     0.02200
C431        C  0.65777515  0.01631315  0.45606782    -0.13800
C432        C  0.66594107  0.03445025  0.43454516    -0.11500
C433        C  0.65741924  0.05170464  0.43388746     0.01800
C434        C  0.64095131  0.05093075  0.45531169    -0.23700
H435        H  0.63377294  0.94686991  0.02556254     0.09800
H436        H  0.65200887  0.97706423  0.48825372     0.13300
H437        H  0.58775654  0.97721423  0.05510912     0.12100
H438        H  0.59061771  0.01352657  0.03290984     0.13200
H439        H  0.60742460  0.04559811  0.99599167     0.12300
H440        H  0.66483426  0.00344571  0.45496999     0.09400
H441        H  0.67858767  0.03464674  0.41804441     0.12600
H442        H  0.63419447  0.06418777  0.45487691     0.14500
C443        C  0.37759286  0.87909075  0.11366726    -0.01000
C444        C  0.38834462  0.87950464  0.08690995    -0.09000
C445        C  0.41088070  0.87883439  0.08518566    -0.17900
C446        C  0.42355368  0.87797799  0.11038610     0.04500
C447        C  0.41173664  0.87608173  0.13735767     0.18700
C448        C  0.38900720  0.87658344  0.13873398    -0.19300
C449        C  0.42308777  0.87455971  0.16292426    -0.20600
C450        C  0.44644201  0.87573953  0.16242145    -0.19100
C451        C  0.45917013  0.87876318  0.13637098     0.20100
C452        C  0.44781190  0.87969004  0.10992271     0.02200
C453        C  0.46168148  0.88327104  0.08429098    -0.13800
C454        C  0.48602520  0.88660485  0.08501372    -0.11500
C455        C  0.49731460  0.88611004  0.11112103     0.01800
C456        C  0.48355895  0.88164556  0.13670218    -0.23700
H457        H  0.37975899  0.88118107  0.06722115     0.09800
H458        H  0.41812864  0.87952679  0.06385573     0.13300
H459        H  0.38070830  0.87599899  0.15957377     0.12100
H460        H  0.41404390  0.87289650  0.18353576     0.13200
H461        H  0.45489832  0.87491644  0.18264131     0.12300
H462        H  0.45454456  0.88422251  0.06338679     0.09400
H463        H  0.49619442  0.88985699  0.06490475     0.12600
H464        H  0.49218582  0.88131838  0.15701303     0.14500
C465        C  0.61871104  0.65914305  0.38945353    -0.01000
C466        C  0.62905062  0.64406651  0.39687526    -0.09000
C467        C  0.63940602  0.63549775  0.37603149    -0.17900
C468        C  0.63954368  0.64145634  0.34665220     0.04500
C469        C  0.62890326  0.65664172  0.33907412     0.18700
C470        C  0.61902907  0.66566472  0.36046728    -0.19300
C471        C  0.62755190  0.66213282  0.31010303    -0.20600
C472        C  0.63589529  0.65235271  0.28846630    -0.19100
C473        C  0.64643213  0.63735165  0.29525529     0.20100
C474        C  0.64908164  0.63222803  0.32445878     0.02200
C475        C  0.66091829  0.61787306  0.33006094    -0.13800
C476        C  0.66846627  0.60788711  0.30755698    -0.11500
C477        C  0.66453198  0.61187318  0.27880743     0.01800
C478        C  0.65397224  0.62710571  0.27290646    -0.23700
H479        H  0.62896737  0.63860322  0.41906259     0.09800
H480        H  0.64656223  0.62369498  0.38353927     0.13300
H481        H  0.61082589  0.67706312  0.35441665     0.12100
H482        H  0.61944707  0.67361582  0.30407246     0.13200
H483        H  0.63400090  0.65648461  0.26621823     0.07500
H484        H  0.66450990  0.61393766  0.35160939     0.09400
H485        H  0.67687142  0.59650920  0.31271771     0.12600
H486        H  0.65113245  0.63066823  0.25073382     0.14500
C487        C  0.61059074  0.66165909  0.03515284    -0.01000
C488        C  0.63623156  0.67484272  0.04246628    -0.09000
C489        C  0.64574118  0.66597268  0.06396389    -0.17900
C490        C  0.62981391  0.64321372  0.07823033     0.04500
C491        C  0.60363564  0.63051118  0.07125376     0.18700
C492        C  0.59427925  0.64007872  0.05038771    -0.19300
C493        C  0.58701269  0.60773782  0.08418827    -0.20600
C494        C  0.59591555  0.59681175  0.10345310    -0.19100
C495        C  0.62156806  0.60861377  0.11053081     0.20100
C496        C  0.63890878  0.63216712  0.09846078     0.02200
C497        C  0.66456513  0.64335440  0.10691776    -0.13800
C498        C  0.67254691  0.63152761  0.12646953    -0.11500
C499        C  0.65529496  0.60824028  0.13794239     0.01800
C500        C  0.62990469  0.59688865  0.12977564    -0.23700
H501        H  0.64909376  0.69173742  0.03104201     0.09800
H502        H  0.66572000  0.67688520  0.06818549     0.13300
H503        H  0.57573253  0.62911616  0.54407402     0.12100
H504        H  0.56705721  0.59802487  0.07887871     0.13200
H505        H  0.58265077  0.57892807  0.11277652     0.12300
H506        H  0.67886006  0.66125725  0.09901693     0.09400
H507        H  0.69226354  0.64071367  0.13273996     0.12600
H508        H  0.61638764  0.57895331  0.13881651     0.14500
C509        C  0.58612986  0.74720151  0.48627266    -0.01000
C510        C  0.56619301  0.75239845  0.98067621    -0.09000
C511        C  0.56430065  0.77071210  0.99641350    -0.17900
C512        C  0.58273890  0.78551466  0.01721302     0.04500
C513        C  0.60418830  0.78237843  0.02008135     0.18700
C514        C  0.60536945  0.76270170  0.50559044    -0.19300
C515        C  0.62335243  0.79709256  0.03973828    -0.20600
C516        C  0.62151780  0.81463734  0.05693655    -0.19100
C517        C  0.60031126  0.81773024  0.05524082     0.20100
C518        C  0.58054234  0.80307797  0.03544949     0.02200
C519        C  0.55921634  0.80634675  0.03512836    -0.13800
C520        C  0.55790351  0.82386920  0.05295232    -0.11500
C521        C  0.57771546  0.83892360  0.07178687     0.01800
C522        C  0.59880006  0.83550643  0.07307239    -0.23700
H523        H  0.55109456  0.74075816  0.96592078     0.09800
H524        H  0.54791272  0.77249388  0.99213143     0.13300
H525        H  0.62128194  0.75975982  0.50900457     0.12100
H526        H  0.63983271  0.79490676  0.04197109     0.13200
H527        H  0.63669238  0.82568905  0.07189946     0.12300
H528        H  0.54316512  0.79565399  0.02131904     0.09400
H529        H  0.54135184  0.82599141  0.05144204     0.12600
H530        H  0.61426616  0.84701438  0.08750893     0.14500
C531        C  0.38681226  0.34202062  0.13304280    -0.01000
C532        C  0.37559017  0.32756272  0.10841636    -0.09000
C533        C  0.36370042  0.33496182  0.08791618    -0.17900
C534        C  0.36271571  0.35728456  0.09133040     0.04500
C535        C  0.37485329  0.37229081  0.11587336     0.18700
C536        C  0.38653203  0.36452962  0.13638093    -0.19300
C537        C  0.37531185  0.39500862  0.11984336    -0.20600
C538        C  0.36422133  0.40334562  0.09976649    -0.19100
C539        C  0.35200946  0.38902573  0.07537875     0.20100
C540        C  0.35060099  0.36552995  0.07110021     0.02200
C541        C  0.33729992  0.35146352  0.04662195    -0.13800
C542        C  0.32747241  0.36107868  0.02628690    -0.11500
C543        C  0.33027004  0.38490458  0.02963303     0.01800
C544        C  0.34184826  0.39842075  0.05479551    -0.23700
H545        H  0.37571792  0.31026790  0.10512385     0.09800
H546        H  0.35556918  0.32287844  0.06952871     0.13300
H547        H  0.39541199  0.37612251  0.15513178     0.12100
H548        H  0.38458258  0.40657812  0.13848050     0.13200
H549        H  0.36531646  0.42120975  0.10328851     0.12300
H550        H  0.33455022  0.33312810  0.04233087     0.09400
H551        H  0.31836219  0.35006839  0.00725269     0.12600
H552        H  0.34408464  0.41683205  0.05771818     0.14500
C553        C  0.39093417  0.34050859  0.27596609    -0.01000
C554        C  0.36520822  0.32780850  0.28278776    -0.09000
C555        C  0.35593058  0.33660851  0.30459700    -0.17900
C556        C  0.37224523  0.35862597  0.32005086     0.04500
C557        C  0.39838924  0.37116905  0.31310244     0.18700
C558        C  0.40743132  0.36193074  0.29148314    -0.19300
C559        C  0.41539157  0.39315164  0.32736534    -0.20600
C560        C  0.40696962  0.40320461  0.34839262    -0.19100
C561        C  0.38139250  0.39137799  0.35576803     0.20100
C562        C  0.36361978  0.36885299  0.34186090     0.02200
C563        C  0.33802118  0.35767657  0.35034396    -0.13800
C564        C  0.33047229  0.36848768  0.37166488    -0.11500
C565        C  0.34812449  0.39061938  0.38522090     0.01800
C566        C  0.37352088  0.40199613  0.37712342    -0.23700
H567        H  0.35213797  0.31117921  0.27099522     0.09800
H568        H  0.33590158  0.32596462  0.30850350     0.13300
H569        H  0.42739665  0.37189138  0.28624808     0.12100
H570        H  0.43532889  0.40276015  0.32204926     0.13200
H571        H  0.42056280  0.42035539  0.35896440     0.12300
H572        H  0.32338454  0.34057086  0.34105041     0.09400
H573        H  0.31072402  0.35933921  0.37771981     0.12600
H574        H  0.38727579  0.41918373  0.38752848     0.14500
C575        C  0.50365803  0.61535663  0.45608451    -0.01000
C576        C  0.49159374  0.60553267  0.42972481    -0.09000
C577        C  0.46825350  0.58351385  0.42864193    -0.17900
C578        C  0.45609010  0.57043694  0.45408413     0.04500
C579        C  0.46805174  0.58086859  0.48086435     0.18700
C580        C  0.49156929  0.60304689  0.48162209    -0.19300
C581        C  0.45667826  0.56888728  0.50671880    -0.20600
C582        C  0.43383353  0.54650797  0.50658117    -0.19100
C583        C  0.42187698  0.53536628  0.48057556     0.20100
C584        C  0.43277172  0.54722682  0.45392797     0.02200
C585        C  0.42015275  0.53499258  0.42827737    -0.13800
C586        C  0.39824497  0.51168261  0.42903139    -0.11500
C587        C  0.38783506  0.49983148  0.45526272     0.01800
C588        C  0.39943846  0.51206173  0.48102270    -0.23700
H589        H  0.50048004  0.61464803  0.40970204     0.09800
H590        H  0.46036329  0.57712265  0.40749020     0.13300
H591        H  0.50069838  0.61048614  0.50218976     0.12100
H592        H  0.46563287  0.57677991  0.52722321     0.13200
H593        H  0.42567882  0.53762618  0.52697155     0.12300
H594        H  0.42700871  0.54264727  0.40720143     0.09400
H595        H  0.38955916  0.50270832  0.40882139     0.12600
H596        H  0.39157596  0.50298856  0.50142815     0.14500
C597        C  0.05430571  0.38708124  0.20574249    -0.01000
C598        C  0.06162179  0.38683826  0.17721006    -0.09000
C599        C  0.04353903  0.37635203  0.15514212    -0.17900
C600        C  0.01735686  0.36583180  0.16090940     0.04500
C601        C  0.01003499  0.36551834  0.19002348     0.18700
C602        C  0.02837131  0.37599407  0.21193270    -0.19300
C603        C  0.98444057  0.35507436  0.19713293    -0.20600
C604        C  0.96586724  0.34520891  0.17589847    -0.19100
C605        C  0.97235454  0.34565948  0.14690369     0.20100
C606        C  0.99819279  0.35590865  0.13895658     0.02200
C607        C  0.00368255  0.35620932  0.10933221    -0.13800
C608        C  0.98446200  0.34710635  0.08859458    -0.11500
C609        C  0.95901982  0.33722872  0.09642686     0.01800
C610        C  0.95312915  0.33635006  0.12576212    -0.23700
H611        H  0.08145031  0.39507700  0.17182660     0.09800
H612        H  0.05066193  0.37695275  0.13375772     0.13300
H613        H  0.02235111  0.37590270  0.23393082     0.12100
H614        H  0.97872598  0.35469492  0.21932046     0.13200
H615        H  0.94627773  0.33744837  0.18218481     0.12300
H616        H  0.02269297  0.36373731  0.10143376     0.09400
H617        H  0.98968985  0.34821078  0.06612143     0.12600
H618        H  0.93360531  0.32897236  0.13213324     0.14500
C619        C  0.95672350  0.35086571  0.45158486    -0.01000
C620        C  0.96884531  0.37645917  0.44577731    -0.09000
C621        C  0.98745723  0.38685624  0.42472144    -0.17900
C622        C  0.99473720  0.37191287  0.40887993     0.04500
C623        C  0.98183606  0.34579386  0.41435974     0.18700
C624        C  0.96295472  0.33555285  0.43543788    -0.19300
C625        C  0.98815479  0.33011016  0.39915156    -0.20600
C626        C  0.00729541  0.33983881  0.37877932    -0.19100
C627        C  0.02054422  0.36546574  0.37317421     0.20100
C628        C  0.01445636  0.38192021  0.38804588     0.02200
C629        C  0.02853337  0.40766950  0.38152299    -0.13800
C630        C  0.04759981  0.41659154  0.36089998    -0.11500
C631        C  0.05331567  0.40021394  0.34627853     0.01800
C632        C  0.03984631  0.37472571  0.35264125    -0.23700
H633        H  0.96415708  0.38861666  0.45785744     0.09800
H634        H  0.99595529  0.40672841  0.42165809     0.13300
H635        H  0.95355053  0.31567965  0.43978504     0.12100
H636        H  0.97834556  0.31019470  0.40319580     0.13200
H637        H  0.01184985  0.32724178  0.36741307     0.12300
H638        H  0.02528443  0.42146071  0.39188329     0.09400
H639        H  0.05782245  0.43639237  0.35627174     0.12600
H640        H  0.04415199  0.36193339  0.34128018     0.14500
C641        C  0.13075815  0.50505179  0.27794552    -0.01000
C642        C  0.13797148  0.51826865  0.30403410    -0.09000
C643        C  0.14002867  0.54176433  0.30648022    -0.17900
C644        C  0.13447876  0.55263414  0.28282278     0.04500
C645        C  0.12881185  0.53982797  0.25592821     0.18700
C646        C  0.12725792  0.51642878  0.25368366    -0.19300
C647        C  0.12341310  0.54979183  0.23170586    -0.20600
C648        C  0.12187779  0.57139145  0.23397808    -0.19100
C649        C  0.12575005  0.58354350  0.26051381     0.20100
C650        C  0.13297487  0.57496309  0.28516141     0.02200
C651        C  0.13709513  0.58843432  0.31128179    -0.13800
C652        C  0.13244271  0.60845302  0.31315096    -0.11500
C653        C  0.12366008  0.61557409  0.28914959     0.01800
C654        C  0.12128259  0.60361645  0.26271718    -0.23700
H655        H  0.14118952  0.51004097  0.32302446     0.09800
H656        H  0.14507636  0.55048350  0.32736629     0.13300
H657        H  0.12189117  0.50645066  0.23334549     0.12100
H658        H  0.11941600  0.54031258  0.21108035     0.13200
H659        H  0.11674287  0.57814308  0.21504410     0.12300
H660        H  0.14318460  0.58353957  0.33074758     0.09400
H661        H  0.13479296  0.61772583  0.33368730     0.12600
H662        H  0.11506927  0.60943247  0.24384295     0.14500
C663        C  0.16930367  0.41672534  0.31154933    -0.01000
C664        C  0.19380001  0.43731128  0.31115009    -0.09000
C665        C  0.21250123  0.43849362  0.32958000    -0.17900
C666        C  0.20729483  0.41898489  0.34919505     0.04500
C667        C  0.18303749  0.39727527  0.34793757     0.18700
C668        C  0.16426962  0.39643383  0.32946654    -0.19300
C669        C  0.17749954  0.37681963  0.36565070    -0.20600
C670        C  0.19542300  0.37764556  0.38496776    -0.19100
C671        C  0.21906931  0.39924431  0.38777883     0.20100
C672        C  0.22518338  0.42033049  0.37012741     0.02200
C673        C  0.24868200  0.44213067  0.37473243    -0.13800
C674        C  0.26568833  0.44275933  0.39524666    -0.11500
C675        C  0.26019703  0.42171552  0.41184844     0.01800
C676        C  0.23667108  0.39997761  0.40813275    -0.23700
H677        H  0.19829374  0.45313954  0.29740902     0.09800
H678        H  0.23079234  0.45505558  0.32814041     0.13300
H679        H  0.14545336  0.38026128  0.32975244     0.12100
H680        H  0.15914352  0.36007007  0.36460216     0.13200
H681        H  0.19054235  0.36145004  0.39824939     0.12300
H682        H  0.25443460  0.45915657  0.36299459     0.09400
H683        H  0.28366657  0.45980014  0.39752349     0.12600
H684        H  0.23217943  0.38353666  0.42077862     0.14500
O685        O  0.11890303  0.46576996  0.80304233    -0.57500
C686        C  0.06859337  0.40892541  0.82463360     0.75100
O687        O  0.06296088  0.39870735  0.75492265    -0.58700
C688        C  0.12090111  0.47830231  0.78071202     0.75100
C689        C  0.14447273  0.41742501  0.79799212     0.77500
Cd690      Cd  0.10364943  0.42543597  0.77865178     1.37500
O691        O  0.07596428  0.42987067  0.81278061    -0.57500
O692        O  0.14840716  0.43478569  0.78061335    -0.56300
C693        C  0.07054651  0.39944922  0.72950998     0.77400
O694        O  0.12159967  0.40221806  0.80351774    -0.58700
O695        O  0.07781207  0.39589618  0.81523592    -0.57200
O696        O  0.11613353  0.46666555  0.75693809    -0.57200
O697        O  0.09433444  0.41175906  0.72609239    -0.56300
O698        O  0.35054473  0.46406193  0.97650903    -0.57500
C699        C  0.33648794  0.39967640  0.90944276     0.75100
O700        O  0.32517127  0.41757965  0.00710427    -0.58700
C701        C  0.36483843  0.47306159  0.95471583     0.75100
C702        C  0.27850054  0.42278478  0.92934987     0.77500
Cd703      Cd  0.32244573  0.42261031  0.95352820     1.37500
O704        O  0.35253888  0.41673289  0.92555222    -0.57500
O705        O  0.27565957  0.40444094  0.94431942    -0.56300
C706        C  0.32439995  0.39672708  0.00513185     0.77400
O707        O  0.30042266  0.44158463  0.92945928    -0.58700
O708        O  0.31352364  0.39288350  0.91392748    -0.57200
O709        O  0.35902325  0.45906834  0.93278794    -0.57200
O710        O  0.31999328  0.38709925  0.98028480    -0.56300
O711        O  0.57861893  0.65632821  0.50338544    -0.57500
C712        C  0.52952300  0.63610340  0.95648378     0.75100
O713        O  0.60365300  0.72121581  0.97652085    -0.58700
C714        C  0.60197928  0.66796497  0.50918863     0.75100
C715        C  0.60719357  0.66775230  0.91229103     0.77500
Cd716      Cd  0.58110079  0.67758578  0.95873886     1.37500
O717        O  0.54192613  0.64360057  0.97970393    -0.57500
O718        O  0.60333397  0.65796003  0.93694638    -0.56300
C719        C  0.58594689  0.72583239  0.97235173     0.77400
O720        O  0.59918163  0.68295974  0.90841142    -0.58700
O721        O  0.54040192  0.64866439  0.93413639    -0.57200
O722        O  0.61558976  0.68326070  0.99073441    -0.57200
O723        O  0.56697119  0.70925946  0.95876206    -0.56300
O724        O  0.53778726  0.90066671  0.58930976    -0.57500
C725        C  0.59802533  0.93938256  0.56457710     0.75100
O726        O  0.61007274  0.93977326  0.63318915    -0.58700
C727        C  0.52362887  0.89139277  0.61097852     0.75100
C728        C  0.57693069  0.85939096  0.58746240     0.77500
Cd729      Cd  0.57583131  0.90312756  0.60923074     1.37500
O730        O  0.58059183  0.93792334  0.58061447    -0.57500
O731        O  0.55893483  0.86358738  0.58346051    -0.56300
C732        C  0.60303551  0.93366938  0.65890858     0.77400
O733        O  0.59419656  0.87434789  0.60436848    -0.58700
O734        O  0.60514543  0.92358600  0.56891769    -0.57200
O735        O  0.53350265  0.88714656  0.63278832    -0.57200
O736        O  0.58430080  0.91190638  0.66247855    -0.56300
O737        O  0.35031596  0.88984010  0.63907758    -0.57500
C738        C  0.33453684  0.93243761  0.67120145     0.75100
O739        O  0.33832135  0.94100155  0.59993238    -0.58700
C740        C  0.35700717  0.88602631  0.61470952     0.75100
C741        C  0.27258148  0.85728552  0.64341217     0.77500
Cd742      Cd  0.31883273  0.90020130  0.62232576     1.37500
O743        O  0.34625403  0.92131333  0.66335214    -0.57500
O744        O  0.28590642  0.85474314  0.62424506    -0.56300
C745        C  0.32515291  0.93595752  0.57736730     0.77400
O746        O  0.27881306  0.87949179  0.64976431    -0.58700
O747        O  0.31525380  0.92820803  0.65659168    -0.57200
O748        O  0.34526293  0.88781691  0.59309885    -0.57200
O749        O  0.30789810  0.91331532  0.57454087    -0.56300
O750        O  0.06348550  0.64009378  0.76084362    -0.57500
C751        C  0.11342791  0.63535551  0.79129474     0.75100
O752        O  0.12780256  0.71922019  0.78312343    -0.58700
C753        C  0.05971447  0.65474353  0.74531410     0.75100
C754        C  0.06642854  0.66850476  0.83758434     0.77500
Cd755      Cd  0.09803696  0.67240247  0.78836557     1.37500
O756        O  0.11643372  0.64904379  0.81307090    -0.57500
O757        O  0.06049973  0.66924547  0.81169166    -0.56300
C758        C  0.14156015  0.71661922  0.76450865     0.77400
O759        O  0.08854139  0.67193709  0.84164433    -0.58700
O760        O  0.10324440  0.63883693  0.76942218    -0.57200
O761        O  0.07422459  0.67791491  0.74931040    -0.57200
O762        O  0.13592797  0.69446817  0.75907943    -0.56300
O763        O  0.88352409  0.52835135  0.51651241    -0.57500
C764        C  0.92758203  0.58937421  0.59222535     0.75100
O765        O  0.91107872  0.58720952  0.99036860    -0.58700
C766        C  0.88626209  0.51772655  0.53849255     0.75100
C767        C  0.85546718  0.57453916  0.55844442     0.77500
Cd768      Cd  0.89824752  0.56919517  0.54138749     1.37500
O769        O  0.91143205  0.56641994  0.59010068    -0.57500
O770        O  0.87765716  0.59291672  0.55745206    -0.56300
C771        C  0.93475143  0.59685438  0.99408838     0.77400
O772        O  0.85235523  0.55450019  0.54730442    -0.58700
O773        O  0.92997694  0.60295056  0.57072443    -0.57200
O774        O  0.89432053  0.53086759  0.56104675    -0.57200
O775        O  0.93981748  0.58977645  0.51843477    -0.56300
O776        O  0.64812151  0.53305917  0.72982852    -0.57500
C777        C  0.66424502  0.59762863  0.66139677     0.75100
O778        O  0.68218717  0.58841031  0.75903780    -0.58700
C779        C  0.63465434  0.52389996  0.70737422     0.75100
C780        C  0.72192682  0.57598733  0.68504663     0.77500
Cd781      Cd  0.67645153  0.57469549  0.70673477     1.37500
O782        O  0.64880657  0.57615207  0.67085713    -0.57500
O783        O  0.70212915  0.55577547  0.69103232    -0.56300
C784        C  0.67190939  0.60177622  0.75555977     0.77400
O785        O  0.72184810  0.59568923  0.69225643    -0.58700
O786        O  0.68626633  0.60826148  0.67206821    -0.57200
O787        O  0.64095783  0.53801658  0.68560179    -0.57200
O788        O  0.66488574  0.60268674  0.73029933    -0.56300
O789        O  0.63481523  0.09822560  0.88268011    -0.57500
C790        C  0.66451345  0.06995975  0.91095869     0.75100
O791        O  0.67742486  0.08977110  0.81017402    -0.58700
C792        C  0.63093937  0.11071199  0.86388801     0.75100
C793        C  0.72007462  0.14327868  0.88258782     0.77500
Cd794      Cd  0.67250765  0.10066950  0.86220993     1.37500
O795        O  0.65230357  0.08120533  0.90654024    -0.57500
O796        O  0.70016062  0.14450713  0.87904826    -0.56300
C797        C  0.66164921  0.06665143  0.81309588     0.77400
O798        O  0.71916051  0.12360864  0.87316712    -0.58700
O799        O  0.68121995  0.07319025  0.89260832    -0.57200
O800        O  0.64680372  0.11936408  0.84334343    -0.57200
O801        O  0.65160739  0.06022420  0.83762358    -0.56300
O802        O  0.92674649  0.35153185  0.98895366    -0.57500
C803        C  0.88869571  0.35759709  0.52999584     0.75100
O804        O  0.88283706  0.27604644  0.50842995    -0.58700
C805        C  0.93623575  0.33932772  0.97791471     0.75100
C806        C  0.93936368  0.32732022  0.57114054     0.77500
Cd807      Cd  0.90513622  0.32136858  0.52355155     1.37500
O808        O  0.89313010  0.35128161  0.50571491    -0.57500
O809        O  0.91596581  0.31865083  0.57583826    -0.56300
C810        C  0.86180028  0.27479148  0.50357162     0.77400
O811        O  0.94587792  0.33086174  0.54500924    -0.58700
O812        O  0.89119238  0.34658437  0.55175182    -0.57200
O813        O  0.92620763  0.31731454  0.48052974    -0.57200
O814        O  0.85837696  0.29068037  0.01733319    -0.56300
O815        O  0.46211378  0.35223839  0.72616840    -0.57500
C816        C  0.39974699  0.33296671  0.75315247     0.75100
O817        O  0.40695337  0.34640913  0.68094418    -0.58700
C818        C  0.47435235  0.35835450  0.70276689     0.75100
C819        C  0.41628687  0.27350000  0.72366263     0.77500
Cd820      Cd  0.42167683  0.32129960  0.70573848     1.37500
O821        O  0.42314781  0.34487435  0.74777952    -0.57500
O822        O  0.43745705  0.29208470  0.71732724    -0.56300
C823        C  0.39965795  0.33427423  0.65769677     0.77400
O824        O  0.39723860  0.27586812  0.71833669    -0.58700
O825        O  0.38614765  0.31469959  0.73683643    -0.57200
O826        O  0.46261843  0.34609770  0.68047174    -0.57200
O827        O  0.40257238  0.31531027  0.65579993    -0.56300
O828        O  0.41304177  0.06164425  0.84825532    -0.57500
C829        C  0.46603162  0.10933552  0.87732166     0.75100
O830        O  0.39122697  0.11957085  0.86034961    -0.58700
C831        C  0.39569898  0.05851200  0.83093774     0.75100
C832        C  0.38589394  0.06711455  0.92519122     0.77500
Cd833      Cd  0.41348388  0.09594038  0.87476444     1.37500
O834        O  0.45364400  0.10455160  0.85406773    -0.57500
O835        O  0.37857583  0.06021017  0.89967068    -0.56300
C836        C  0.41098549  0.13860145  0.85133763     0.77400
O837        O  0.40496671  0.08878584  0.92797622    -0.58700
O838        O  0.45432762  0.10861676  0.90023518    -0.57200
O839        O  0.38668367  0.07292795  0.83382968    -0.57200
O840        O  0.43148151  0.13901628  0.85665309    -0.56300
C841        C  0.41043685  0.15852861  0.83382528    -0.01000
C842        C  0.38756655  0.15693020  0.82549284    -0.09000
C843        C  0.38720372  0.17428855  0.80625150    -0.17900
C844        C  0.40986523  0.19390585  0.79456191     0.04500
C845        C  0.43296786  0.19552304  0.80337328     0.18700
C846        C  0.43303143  0.17805052  0.82271896    -0.19300
C847        C  0.45600252  0.21453446  0.79275002    -0.20600
C848        C  0.45673650  0.23238130  0.77397144    -0.19100
C849        C  0.43443925  0.23162005  0.76508906     0.20100
C850        C  0.41060960  0.21216910  0.77481421     0.02200
C851        C  0.38872491  0.21217916  0.76462695    -0.13800
C852        C  0.39055830  0.23139001  0.74688173    -0.11500
C853        C  0.41415979  0.25110681  0.73841348     0.01800
C854        C  0.43597707  0.25067125  0.74710195    -0.23700
H855        H  0.36980135  0.14189398  0.83342811     0.09800
H856        H  0.36892000  0.17181200  0.80081714     0.13300
H857        H  0.45086294  0.17941834  0.82870534     0.12100
H858        H  0.47366273  0.21577878  0.79926161     0.13200
H859        H  0.47494787  0.24705768  0.76654455     0.12300
H860        H  0.36995450  0.19786090  0.77046768     0.09400
H861        H  0.37337465  0.23117825  0.74048613     0.12600
H862        H  0.45436816  0.26577040  0.74076636     0.14500
C863        C  0.60867871  0.11430193  0.86623029    -0.01000
C864        C  0.60157174  0.12445143  0.84357983    -0.09000
C865        C  0.57956203  0.12616563  0.84539962    -0.17900
C866        C  0.56387529  0.11774091  0.87012416     0.04500
C867        C  0.57160902  0.10811727  0.89335268     0.18700
C868        C  0.59371386  0.10649578  0.89119908    -0.19300
C869        C  0.55701947  0.09973021  0.91844960    -0.20600
C870        C  0.53452924  0.10017831  0.92081403    -0.19100
C871        C  0.52593882  0.10886426  0.89806683     0.20100
C872        C  0.54058220  0.11798005  0.87245894     0.02200
C873        C  0.53085049  0.12621275  0.85000348    -0.13800
C874        C  0.50710527  0.12423261  0.85228239    -0.11500
C875        C  0.49246431  0.11457002  0.87716207     0.01800
C876        C  0.50232374  0.10764157  0.90036612    -0.23700
H877        H  0.61281032  0.13066705  0.82412523     0.09800
H878        H  0.57523108  0.13395573  0.82696306     0.13300
H879        H  0.59909072  0.09875237  0.90901009     0.12100
H880        H  0.56289911  0.09247390  0.93628336     0.13200
H881        H  0.52352456  0.09321871  0.94037978     0.12300
H882        H  0.54077854  0.13360111  0.83004180     0.09400
H883        H  0.49990543  0.12987164  0.83416139     0.12600
H884        H  0.49099478  0.09997999  0.91961524     0.14500
C885        C  0.84047309  0.25240588  0.99005475    -0.01000
C886        C  0.84398941  0.23387970  0.97688145    -0.09000
C887        C  0.82525704  0.21566872  0.95898199    -0.17900
C888        C  0.80236045  0.21558075  0.95334314     0.04500
C889        C  0.79890620  0.23429813  0.96700750     0.18700
C890        C  0.81765580  0.25215720  0.98520974    -0.19300
C891        C  0.77689471  0.23546839  0.96208250    -0.20600
C892        C  0.75810797  0.21845750  0.94388179    -0.19100
C893        C  0.76071330  0.19969452  0.93012905     0.20100
C894        C  0.78282184  0.19786385  0.93459958     0.02200
C895        C  0.78418336  0.17832069  0.92020377    -0.13800
C896        C  0.76427647  0.16118803  0.90263767    -0.11500
C897        C  0.74243943  0.16300251  0.89851033     0.01800
C898        C  0.74103366  0.18254079  0.91222288    -0.23700
H899        H  0.85960703  0.23214971  0.48244413     0.09800
H900        H  0.82938566  0.20217870  0.94946020     0.13300
H901        H  0.81475163  0.26650903  0.99491030     0.12100
H902        H  0.77420260  0.24974981  0.97233245     0.13200
H903        H  0.74131912  0.21995710  0.94061366     0.12300
H904        H  0.80022842  0.17559690  0.92245839     0.09400
H905        H  0.76582803  0.14615732  0.89263157     0.12600
H906        H  0.72418317  0.18405236  0.90959992     0.14500
C907        C  0.61254187  0.49826697  0.70601646    -0.01000
C908        C  0.60003585  0.48906656  0.67966623    -0.09000
C909        C  0.57877126  0.46537753  0.67759355    -0.17900
C910        C  0.56900410  0.44989303  0.70204183     0.04500
C911        C  0.58165958  0.45923590  0.72882985     0.18700
C912        C  0.60331412  0.48313503  0.73055296    -0.19300
C913        C  0.57236784  0.44482842  0.75381352    -0.20600
C914        C  0.55039801  0.42167022  0.75295017    -0.19100
C915        C  0.53730763  0.41217316  0.72701910     0.20100
C916        C  0.54675318  0.42580886  0.70101825     0.02200
C917        C  0.53321495  0.41490238  0.67525867    -0.13800
C918        C  0.51046353  0.39223088  0.67566673    -0.11500
C919        C  0.50044265  0.37972693  0.70163512     0.01800
C920        C  0.51435421  0.38944768  0.72711083    -0.23700
H921        H  0.60664687  0.50033110  0.66035214     0.09800
H922        H  0.57019597  0.45993741  0.65660361     0.13300
H923        H  0.61270437  0.49010942  0.75109188     0.12100
H924        H  0.58189134  0.45172440  0.77429318     0.13200
H925        H  0.54341198  0.41124872  0.77280611     0.12300
H926        H  0.53944846  0.42359946  0.65451034     0.09400
H927        H  0.50011983  0.38503806  0.65569467     0.12600
H928        H  0.50687036  0.37970641  0.74728016     0.14500
C929        C  0.88197031  0.37748650  0.53257351    -0.01000
C930        C  0.88066210  0.38684577  0.55960549    -0.09000
C931        C  0.87767297  0.40779583  0.56190308    -0.17900
C932        C  0.87613218  0.42024509  0.53703958     0.04500
C933        C  0.87570206  0.40959935  0.50973478     0.18700
C934        C  0.87856029  0.38844405  0.50776635    -0.19300
C935        C  0.87346080  0.42070500  0.48446468    -0.20600
C936        C  0.87301830  0.44297619  0.48558245    -0.19100
C937        C  0.87506539  0.45481821  0.51197499     0.20100
C938        C  0.87609891  0.44336916  0.53815899     0.02200
C939        C  0.87835748  0.45621639  0.56419209    -0.13800
C940        C  0.88094892  0.47996016  0.56407863    -0.11500
C941        C  0.88094191  0.49158820  0.53817448     0.01800
C942        C  0.87717352  0.47856374  0.51223812    -0.23700
H943        H  0.88281588  0.37845971  0.57910246     0.09800
H944        H  0.87725952  0.41412074  0.58343493     0.13300
H945        H  0.87910873  0.38108084  0.48672210     0.12100
H946        H  0.87274946  0.41246827  0.46360418     0.13200
H947        H  0.87195206  0.45143406  0.46557279     0.12300
H948        H  0.87900852  0.44880639  0.58497350     0.09400
H949        H  0.88347224  0.48948289  0.58446905     0.12600
H950        H  0.87702112  0.48736818  0.49210211     0.14500
C951        C  0.74317259  0.57650805  0.66881337    -0.01000
C952        C  0.76479814  0.59921951  0.66217160    -0.09000
C953        C  0.78346967  0.60002851  0.64394178    -0.17900
C954        C  0.78100115  0.57800562  0.63140059     0.04500
C955        C  0.75919429  0.55498234  0.63856487     0.18700
C956        C  0.74074026  0.55443478  0.65719205    -0.19300
C957        C  0.75565129  0.53262242  0.62668553    -0.20600
C958        C  0.77324019  0.53256344  0.60770137    -0.19100
C959        C  0.79490695  0.55486203  0.60012923     0.20100
C960        C  0.79919114  0.57793402  0.61190338     0.02200
C961        C  0.82156336  0.59983947  0.60373314    -0.13800
C962        C  0.83911998  0.59876523  0.58527741    -0.11500
C963        C  0.83497153  0.57595833  0.57402929     0.01800
C964        C  0.81258117  0.55411072  0.58126309    -0.23700
H965        H  0.76707814  0.61657819  0.67062422     0.09800
H966        H  0.79938573  0.61822537  0.63970291     0.13300
H967        H  0.72397914  0.53675758  0.66189597     0.12100
H968        H  0.73905915  0.51501194  0.63202171     0.13200
H969        H  0.76989208  0.51490403  0.59892804     0.12300
H970        H  0.82629937  0.61805396  0.61166173     0.09400
H971        H  0.85639009  0.61588738  0.58037067     0.12600
H972        H  0.80934030  0.53629138  0.57312190     0.14500
C973        C  0.04765155  0.66245244  0.86113102    -0.01000
C974        C  0.02249511  0.65516126  0.85419096    -0.09000
C975        C  0.00363865  0.64616476  0.87526433    -0.17900
C976        C  0.00925435  0.64411066  0.90433371     0.04500
C977        C  0.03501591  0.65289788  0.91163503     0.18700
C978        C  0.05383917  0.66177913  0.89010684    -0.19300
C979        C  0.04174739  0.65219065  0.94030600    -0.20600
C980        C  0.02342467  0.64224406  0.96174444    -0.19100
C981        C  0.99779550  0.63233983  0.95504322     0.20100
C982        C  0.99027001  0.63324771  0.92629639     0.02200
C983        C  0.96403388  0.62253572  0.92073301    -0.13800
C984        C  0.94612085  0.61105873  0.94267899    -0.11500
C985        C  0.95364759  0.60995508  0.97089835     0.01800
C986        C  0.97961261  0.62098869  0.97690656    -0.23700
H987        H  0.01709426  0.65563904  0.83206086     0.09800
H988        H  0.98478895  0.64066301  0.86804488     0.13300
H989        H  0.07321578  0.66754372  0.89583936     0.12100
H990        H  0.06132840  0.65910114  0.94616261     0.13200
H991        H  0.02930897  0.64175589  0.98365610     0.12300
H992        H  0.95671722  0.62226884  0.89952834     0.09400
H993        H  0.92624633  0.60271529  0.93741350     0.12600
H994        H  0.98575653  0.62034500  0.99865503     0.14500
C995        C  0.03911759  0.64513149  0.72407992    -0.01000
C996        C  0.02091874  0.61977583  0.72396106    -0.09000
C997        C  0.00088432  0.61044407  0.70454721    -0.17900
C998        C  0.99861632  0.62629014  0.68431620     0.04500
C999        C  0.01757657  0.65190578  0.68399819     0.18700
C1000       C  0.03734587  0.66114489  0.70410792    -0.19300
C1001       C  0.01699307  0.66801456  0.66323937    -0.20600
C1002       C  0.99844000  0.65898527  0.64204206    -0.19100
C1003       C  0.97963569  0.63383380  0.64173284     0.20100
C1004       C  0.97881849  0.61737387  0.66358989     0.02200
C1005       C  0.95845996  0.59256418  0.66343262    -0.13800
C1006       C  0.94115450  0.58383728  0.64082922    -0.11500
C1007       C  0.94346685  0.59958452  0.61800040     0.01800
C1008       C  0.96207179  0.62481172  0.61915094    -0.23700
H1009       H  0.02204100  0.60702825  0.73910663     0.09800
H1010       H  0.98788299  0.59067717  0.70548641     0.13300
H1011       H  0.05160158  0.68075190  0.70389114     0.12100
H1012       H  0.03139914  0.68755729  0.66288455     0.13200
H1013       H  0.99894541  0.67169114  0.62563059     0.12300
H1014       H  0.95555251  0.57939801  0.68023219     0.09400
H1015       H  0.92637676  0.56444107  0.64081535     0.12600
H1016       H  0.96351098  0.63726414  0.60189202     0.14500
C1017       C  0.25199595  0.83576420  0.65907175    -0.01000
C1018       C  0.24819885  0.81161640  0.65538041    -0.09000
C1019       C  0.23101210  0.79185771  0.67265696    -0.17900
C1020       C  0.21688363  0.79558564  0.69436353     0.04500
C1021       C  0.22033865  0.81997428  0.69753833     0.18700
C1022       C  0.23779274  0.83968856  0.68012726    -0.19300
C1023       C  0.20646041  0.82462539  0.71821140    -0.20600
C1024       C  0.18894042  0.80550887  0.73562281    -0.19100
C1025       C  0.18509475  0.78127642  0.73320062     0.20100
C1026       C  0.19931643  0.77604443  0.71283743     0.02200
C1027       C  0.19526597  0.75146473  0.71185881    -0.13800
C1028       C  0.17720584  0.73274978  0.72939818    -0.11500
C1029       C  0.16249374  0.73767923  0.74867592     0.01800
C1030       C  0.16686284  0.76216312  0.75078336    -0.23700
H1031       H  0.25903772  0.80805694  0.63950725     0.09800
H1032       H  0.22926718  0.77389927  0.66851657     0.13300
H1033       H  0.24062131  0.85829265  0.68335343     0.12100
H1034       H  0.20901642  0.84318128  0.72077786     0.13200
H1035       H  0.17831314  0.80973190  0.75112474     0.12300
H1036       H  0.20564669  0.74603406  0.69763371     0.09400
H1037       H  0.17444663  0.71407949  0.72740254     0.12600
H1038       H  0.15567019  0.76624727  0.76561245     0.14500
C1039       C  0.34313364  0.94973117  0.69586139    -0.01000
C1040       C  0.36348646  0.95278145  0.71274296    -0.09000
C1041       C  0.37223510  0.96967472  0.73558690    -0.17900
C1042       C  0.36089997  0.98424739  0.74215847     0.04500
C1043       C  0.34022534  0.98103420  0.72487560     0.18700
C1044       C  0.33147486  0.96378595  0.70215861    -0.19300
C1045       C  0.32859356  0.99527419  0.73009047    -0.20600
C1046       C  0.33728986  0.01298840  0.75193428    -0.19100
C1047       C  0.35764434  0.01667848  0.76924282     0.20100
C1048       C  0.36955254  0.00214239  0.76490941     0.02200
C1049       C  0.38967442  0.00627382  0.78346272    -0.13800
C1050       C  0.39795836  0.02445552  0.80490488    -0.11500
C1051       C  0.38651451  0.03906199  0.80857434     0.01800
C1052       C  0.36625262  0.03496473  0.79082753    -0.23700
H1053       H  0.37282010  0.94213503  0.70820008     0.09800
H1054       H  0.38809949  0.97107429  0.74739344     0.13300
H1055       H  0.31577836  0.96160979  0.68904322     0.12100
H1056       H  0.31282802  0.99288498  0.71697495     0.13200
H1057       H  0.32807189  0.02393246  0.75526133     0.12300
H1058       H  0.39942985  0.99579776  0.78204342     0.09400
H1059       H  0.41353135  0.02717440  0.81857826     0.12600
H1060       H  0.35715215  0.04607307  0.79376366     0.14500
C1061       C  0.37365084  0.04995669  0.94993698    -0.01000
C1062       C  0.38445702  0.05616474  0.97745713    -0.09000
C1063       C  0.37534171  0.03866860  0.99980710    -0.17900
C1064       C  0.35504633  0.01409179  0.99532915     0.04500
C1065       C  0.34334672  0.00821396  0.96776370     0.18700
C1066       C  0.35261908  0.02608004  0.94551167    -0.19300
C1067       C  0.32300606  0.98426679  0.96227350    -0.20600
C1068       C  0.31463623  0.96569259  0.98321627    -0.19100
C1069       C  0.32626613  0.97035045  0.50828459     0.20100
C1070       C  0.34532074  0.99521820  0.51501367     0.02200
C1071       C  0.35576707  0.99991609  0.54300474    -0.13800
C1072       C  0.34856471  0.98068484  0.56291135    -0.11500
C1073       C  0.33055965  0.95597037  0.55598839     0.01800
C1074       C  0.31903735  0.95101689  0.52873717    -0.23700
H1075       H  0.40065685  0.07440025  0.98152690     0.09800
H1076       H  0.38503260  0.04483076  0.02014542     0.13300
H1077       H  0.34399466  0.02100967  0.92433333     0.12100
H1078       H  0.31382509  0.97970040  0.94138430     0.13200
H1079       H  0.29918674  0.94725904  0.97801231     0.12300
H1080       H  0.36986100  0.01824417  0.55016545     0.09400
H1081       H  0.35754475  0.98525644  0.58389962     0.12600
H1082       H  0.30494657  0.93205028  0.52316618     0.14500
C1083       C  0.65491064  0.04763813  0.78979844    -0.01000
C1084       C  0.66761842  0.05344458  0.76333764    -0.09000
C1085       C  0.66121337  0.03503743  0.74202476    -0.17900
C1086       C  0.64163059  0.01007741  0.74645881     0.04500
C1087       C  0.62873312  0.00439443  0.77325899     0.18700
C1088       C  0.63549768  0.02296497  0.79445973    -0.19300
C1089       C  0.60894688  0.98021130  0.77878801    -0.20600
C1090       C  0.60129962  0.96153536  0.75807513    -0.19100
C1091       C  0.61333841  0.96644114  0.73130441     0.20100
C1092       C  0.63396999  0.99065943  0.72522320     0.02200
C1093       C  0.64566968  0.99439667  0.69798581    -0.13800
C1094       C  0.63635676  0.97539583  0.67722859    -0.11500
C1095       C  0.61523750  0.95193098  0.68281359     0.01800
C1096       C  0.60430005  0.94740661  0.71027385    -0.23700
H1097       H  0.68268057  0.07226868  0.75911724     0.09800
H1098       H  0.67178673  0.04094110  0.72224689     0.13300
H1099       H  0.62538954  0.01812003  0.81475297     0.12100
H1100       H  0.59906106  0.97576106  0.79921074     0.13200
H1101       H  0.58564527  0.94315521  0.76294666     0.12300
H1102       H  0.66172296  0.01194158  0.69187949     0.09400
H1103       H  0.64534264  0.97942401  0.65627713     0.12600
H1104       H  0.58798549  0.92938042  0.71490040     0.14500
C1105       C  0.60945136  0.95873561  0.54225099    -0.01000
C1106       C  0.62757685  0.95936803  0.52328361    -0.09000
C1107       C  0.63818036  0.97773860  0.50206755    -0.17900
C1108       C  0.63090322  0.99611261  0.49929510     0.04500
C1109       C  0.61289155  0.99558416  0.51913560     0.18700
C1110       C  0.60232897  0.97697626  0.54012960    -0.19300
C1111       C  0.60537571  0.01356140  0.51792449    -0.20600
C1112       C  0.61511591  0.03200669  0.49708085    -0.19100
C1113       C  0.63281806  0.03414014  0.97809459     0.20100
C1114       C  0.64239566  0.01740957  0.98021131     0.02200
C1115       C  0.66150908  0.02038863  0.96067798    -0.13800
C1116       C  0.66943445  0.03811475  0.93875197    -0.11500
C1117       C  0.65871025  0.05340985  0.93586749     0.01800
C1118       C  0.64101821  0.05185239  0.95611026    -0.23700
H1119       H  0.63351800  0.94554184  0.52474823     0.09800
H1120       H  0.65309675  0.97911831  0.99013349     0.13300
H1121       H  0.58848228  0.97675798  0.55495259     0.12100
H1122       H  0.59176876  0.01329100  0.53314057     0.13200
H1123       H  0.60881920  0.04560998  0.49656952     0.12300
H1124       H  0.67041860  0.00909890  0.96147557     0.09400
H1125       H  0.68346662  0.03934886  0.92353611     0.12600
H1126       H  0.63297105  0.06399402  0.95427562     0.14500
C1127       C  0.37819393  0.88090218  0.61208223    -0.01000
C1128       C  0.38924368  0.88189394  0.58533778    -0.09000
C1129       C  0.41157267  0.88079076  0.58359833    -0.17900
C1130       C  0.42363083  0.87879997  0.60876535     0.04500
C1131       C  0.41124139  0.87590484  0.63555648     0.18700
C1132       C  0.38884387  0.87701633  0.63696031    -0.19300
C1133       C  0.42171614  0.87279305  0.66098456    -0.20600
C1134       C  0.44484712  0.87349497  0.66060338    -0.19100
C1135       C  0.45831471  0.87779932  0.63486709     0.20100
C1136       C  0.44781346  0.88031704  0.60851066     0.02200
C1137       C  0.46249294  0.88537261  0.58328502    -0.13800
C1138       C  0.48674246  0.88846154  0.58433728    -0.11500
C1139       C  0.49718217  0.88631225  0.61036769     0.01800
C1140       C  0.48262392  0.88045824  0.63550086    -0.23700
H1141       H  0.38114081  0.88446997  0.56575569     0.09800
H1142       H  0.41915611  0.88200387  0.56233310     0.13300
H1143       H  0.38016126  0.87573706  0.65773480     0.12100
H1144       H  0.41216517  0.87025642  0.68142848     0.13200
H1145       H  0.45261745  0.87142500  0.68074344     0.12300
H1146       H  0.45609421  0.88777803  0.56253016     0.09400
H1147       H  0.49753245  0.89289631  0.56455526     0.12600
H1148       H  0.49055399  0.87885334  0.65576533     0.14500
C1149       C  0.62010364  0.66114550  0.88966925    -0.01000
C1150       C  0.63213190  0.64764681  0.89727212    -0.09000
C1151       C  0.64313298  0.63973972  0.87646158    -0.17900
C1152       C  0.64222981  0.64477313  0.84694562     0.04500
C1153       C  0.63018660  0.65865653  0.83923027     0.18700
C1154       C  0.61958529  0.66696659  0.86056698    -0.19300
C1155       C  0.62818065  0.66354338  0.81019776    -0.20600
C1156       C  0.63711248  0.65427097  0.78862448    -0.19100
C1157       C  0.64864355  0.64018475  0.79552626     0.20100
C1158       C  0.65201910  0.63578015  0.82477829     0.02200
C1159       C  0.66455186  0.62209312  0.83045942    -0.13800
C1160       C  0.67190581  0.61187369  0.80805153    -0.11500
C1161       C  0.66719400  0.61506190  0.77932557     0.01800
C1162       C  0.65620477  0.62988874  0.77326280    -0.23700
H1163       H  0.63286963  0.64289825  0.91957602     0.09800
H1164       H  0.65166014  0.62919197  0.88415209     0.13300
H1165       H  0.61018929  0.67724458  0.85439975     0.12100
H1166       H  0.61910036  0.67412517  0.80408072     0.13200
H1167       H  0.63467919  0.65787309  0.76633728     0.07500
H1168       H  0.66863396  0.61864583  0.85200035     0.09400
H1169       H  0.68067922  0.60084305  0.81329830     0.12600
H1170       H  0.65278843  0.63285060  0.75107014     0.14500
C1171       C  0.61184452  0.66109963  0.53432046    -0.01000
C1172       C  0.63747307  0.67449250  0.54171086    -0.09000
C1173       C  0.64697778  0.66601195  0.56365916    -0.17900
C1174       C  0.63103449  0.64352609  0.57841713     0.04500
C1175       C  0.60494185  0.63047226  0.57107906     0.18700
C1176       C  0.59561704  0.63958784  0.54970484    -0.19300
C1177       C  0.58834265  0.60781467  0.58424356    -0.20600
C1178       C  0.59722165  0.59727933  0.60403876    -0.19100
C1179       C  0.62278555  0.60945260  0.61153887     0.20100
C1180       C  0.64004134  0.63302198  0.59944081     0.02200
C1181       C  0.66551816  0.64477151  0.60870327    -0.13800
C1182       C  0.67350792  0.63322865  0.62864327    -0.11500
C1183       C  0.65642011  0.60971876  0.63973232     0.01800
C1184       C  0.63112661  0.59803130  0.63115965    -0.23700
H1185       H  0.65031907  0.69126007  0.53007408     0.09800
H1186       H  0.66695646  0.67698684  0.56787698     0.13300
H1187       H  0.57437808  0.62979545  0.04478625     0.12100
H1188       H  0.56844721  0.59784983  0.57865016     0.13200
H1189       H  0.58401250  0.57941412  0.61344659     0.12300
H1190       H  0.67963724  0.66288717  0.60112567     0.09400
H1191       H  0.69310145  0.64275921  0.63543154     0.12600
H1192       H  0.61769888  0.57998842  0.64003876     0.14500
C1193       C  0.58658416  0.74832085  0.98478875    -0.01000
C1194       C  0.56562374  0.75110771  0.48230312    -0.09000
C1195       C  0.56374069  0.76945326  0.49791782    -0.17900
C1196       C  0.58228824  0.78446215  0.51850730     0.04500
C1197       C  0.60354355  0.78105456  0.52179208     0.18700
C1198       C  0.60596401  0.76399303  0.00388264    -0.19300
C1199       C  0.62248984  0.79552043  0.54178766    -0.20600
C1200       C  0.62069112  0.81317842  0.55880607    -0.19100
C1201       C  0.59985324  0.81680624  0.55637640     0.20100
C1202       C  0.58034639  0.80246110  0.53617137     0.02200
C1203       C  0.55960304  0.80660947  0.53470041    -0.13800
C1204       C  0.55842800  0.82439424  0.55212123    -0.11500
C1205       C  0.57780303  0.83886167  0.57169106     0.01800
C1206       C  0.59845677  0.83482595  0.57386073    -0.23700
H1207       H  0.55051656  0.73942357  0.46757751     0.09800
H1208       H  0.54723178  0.77103708  0.49371183     0.13300
H1209       H  0.62193776  0.76113039  0.00718762     0.12100
H1210       H  0.63875980  0.79304168  0.54443586     0.13200
H1211       H  0.63566538  0.82399781  0.57408458     0.12300
H1212       H  0.54394502  0.79651566  0.52019486     0.09400
H1213       H  0.54230704  0.82713536  0.54976991     0.12600
H1214       H  0.61365348  0.84599418  0.58876014     0.14500
C1215       C  0.38820372  0.34218253  0.63460851    -0.01000
C1216       C  0.37820440  0.32801461  0.60952633    -0.09000
C1217       C  0.36672647  0.33530132  0.58841344    -0.17900
C1218       C  0.36490409  0.35718515  0.59170790     0.04500
C1219       C  0.37538208  0.37164715  0.61705135     0.18700
C1220       C  0.38678773  0.36407569  0.63806329    -0.19300
C1221       C  0.37447614  0.39364471  0.62132920    -0.20600
C1222       C  0.36363974  0.40182898  0.60077954    -0.19100
C1223       C  0.35332008  0.38819975  0.57543425     0.20100
C1224       C  0.35347083  0.36548745  0.57067818     0.02200
C1225       C  0.34250018  0.35232811  0.54487105    -0.13800
C1226       C  0.33316617  0.36200837  0.52405275    -0.11500
C1227       C  0.33409721  0.38494843  0.52822947     0.01800
C1228       C  0.34354456  0.39757894  0.55440574    -0.23700
H1229       H  0.37908093  0.31109851  0.60627483     0.09800
H1230       H  0.35951854  0.32343191  0.56972601     0.13300
H1231       H  0.39455863  0.37533700  0.65730123     0.12100
H1232       H  0.38241323  0.40474119  0.64063223     0.13200
H1233       H  0.36356044  0.41910280  0.60462645     0.12300
H1234       H  0.34131656  0.33474608  0.53984800     0.09400
H1235       H  0.32582708  0.35174849  0.50411909     0.12600
H1236       H  0.34441517  0.41535241  0.55788180     0.14500
C1237       C  0.38913836  0.34059618  0.77690152    -0.01000
C1238       C  0.36310710  0.32838021  0.78210984    -0.09000
C1239       C  0.35329152  0.33676642  0.80383433    -0.17900
C1240       C  0.36939668  0.35777746  0.82090265     0.04500
C1241       C  0.39582774  0.36968406  0.81566456     0.18700
C1242       C  0.40533217  0.36104980  0.79392683    -0.19300
C1243       C  0.41275865  0.39034634  0.83193725    -0.20600
C1244       C  0.40403203  0.39966988  0.85341702    -0.19100
C1245       C  0.37817322  0.38862388  0.85896153     0.20100
C1246       C  0.36038027  0.36755634  0.84283243     0.02200
C1247       C  0.33442854  0.35746771  0.84923890    -0.13800
C1248       C  0.32662013  0.36792058  0.87079363    -0.11500
C1249       C  0.34438532  0.38852363  0.88662804     0.01800
C1250       C  0.37007244  0.39873904  0.88058054    -0.23700
H1251       H  0.35025584  0.31246413  0.76915994     0.09800
H1252       H  0.33309149  0.32651687  0.80661985     0.13300
H1253       H  0.42553214  0.37057507  0.79004918     0.12100
H1254       H  0.43291654  0.39941167  0.82797776     0.13200
H1255       H  0.41760945  0.41574018  0.86567457     0.12300
H1256       H  0.31973770  0.34165067  0.83792693     0.09400
H1257       H  0.30661263  0.35978109  0.87514383     0.12600
H1258       H  0.38391489  0.41481535  0.89264665     0.14500
C1259       C  0.50410864  0.61342312  0.95558910    -0.01000
C1260       C  0.49193264  0.60373372  0.92923599    -0.09000
C1261       C  0.46877181  0.58147963  0.92808077    -0.17900
C1262       C  0.45686440  0.56804784  0.95344004     0.04500
C1263       C  0.46913400  0.57812727  0.98019052     0.18700
C1264       C  0.49246432  0.60052192  0.98101681    -0.19300
C1265       C  0.45817381  0.56567727  0.00596460    -0.20600
C1266       C  0.43527334  0.54336232  0.00580859    -0.19100
C1267       C  0.42277331  0.53278963  0.97986232     0.20100
C1268       C  0.43339917  0.54494082  0.95326017     0.02200
C1269       C  0.42020907  0.53321207  0.92765799    -0.13800
C1270       C  0.39784061  0.51023625  0.92842081    -0.11500
C1271       C  0.38751879  0.49828425  0.95463373     0.01800
C1272       C  0.39990206  0.50987466  0.98033496    -0.23700
H1273       H  0.50054415  0.61321362  0.90928066     0.09800
H1274       H  0.46074829  0.57523605  0.90694255     0.13300
H1275       H  0.50172249  0.60777547  0.00157234     0.12100
H1276       H  0.46742248  0.57323315  0.02643515     0.13200
H1277       H  0.42737679  0.53419431  0.02614897     0.12300
H1278       H  0.42687033  0.54110111  0.90661499     0.09400
H1279       H  0.38859857  0.50167815  0.90826839     0.12600
H1280       H  0.39217976  0.50063157  0.00070208     0.14500
C1281       C  0.05213388  0.38694875  0.70557544    -0.01000
C1282       C  0.06004990  0.38764702  0.67709819    -0.09000
C1283       C  0.04237518  0.37675574  0.65467063    -0.17900
C1284       C  0.01600423  0.36487215  0.66000277     0.04500
C1285       C  0.00813118  0.36414290  0.68895736     0.18700
C1286       C  0.02605777  0.37490503  0.71123775    -0.19300
C1287       C  0.98237386  0.35301244  0.69554998    -0.20600
C1288       C  0.96415791  0.34290147  0.67395012    -0.19100
C1289       C  0.97114797  0.34341583  0.64513955     0.20100
C1290       C  0.99715744  0.35409945  0.63775481     0.02200
C1291       C  0.00309434  0.35377228  0.60838493    -0.13800
C1292       C  0.98417754  0.34414406  0.58727018    -0.11500
C1293       C  0.95861598  0.33439434  0.59445710     0.01800
C1294       C  0.95224788  0.33372511  0.62361268    -0.23700
H1295       H  0.08001358  0.39686248  0.67205683     0.09800
H1296       H  0.04994163  0.37824022  0.63334259     0.13300
H1297       H  0.01958066  0.37426164  0.73313559     0.12100
H1298       H  0.97625010  0.35239247  0.71760240     0.13200
H1299       H  0.94443349  0.33475860  0.67982528     0.12300
H1300       H  0.02222443  0.36110111  0.60098491     0.09400
H1301       H  0.98975267  0.34490307  0.56497691     0.12600
H1302       H  0.93261393  0.32631471  0.62951878     0.14500
C1303       C  0.95417800  0.34936623  0.95391250    -0.01000
C1304       C  0.95993072  0.37213890  0.94127665    -0.09000
C1305       C  0.97839593  0.38264423  0.92004541    -0.17900
C1306       C  0.99183248  0.37067053  0.91097332     0.04500
C1307       C  0.98519359  0.34710975  0.92324049     0.18700
C1308       C  0.96654542  0.33675411  0.94445811    -0.19300
C1309       C  0.99735454  0.33409739  0.91449698    -0.20600
C1310       C  0.01605363  0.34396524  0.89365384    -0.19100
C1311       C  0.02324813  0.36722795  0.88144164     0.20100
C1312       C  0.01151478  0.38111566  0.89016222     0.02200
C1313       C  0.02017222  0.40491477  0.87781521    -0.13800
C1314       C  0.03902740  0.41408459  0.85695569    -0.11500
C1315       C  0.04982520  0.39988957  0.84783302     0.01800
C1316       C  0.04210228  0.37664713  0.86040581    -0.23700
H1317       H  0.95033833  0.38205025  0.94808301     0.09800
H1318       H  0.98170627  0.40016602  0.91123608     0.13300
H1319       H  0.96202050  0.31900755  0.95406248     0.12100
H1320       H  0.99230613  0.31611628  0.92378018     0.13200
H1321       H  0.02503742  0.33338469  0.88713663     0.12300
H1322       H  0.01283038  0.41695987  0.88381804     0.09400
H1323       H  0.04496817  0.43225885  0.84769465     0.12600
H1324       H  0.05062168  0.36569196  0.85361308     0.14500
C1325       C  0.12707925  0.50467142  0.78263366    -0.01000
C1326       C  0.13109964  0.51646929  0.80950795    -0.09000
C1327       C  0.13296483  0.53989020  0.81199087    -0.17900
C1328       C  0.13053159  0.55214463  0.78750606     0.04500
C1329       C  0.12828750  0.54084846  0.76009944     0.18700
C1330       C  0.12669035  0.51743243  0.75792049    -0.19300
C1331       C  0.12650721  0.55242703  0.73504934    -0.20600
C1332       C  0.12545494  0.57432221  0.73668095    -0.19100
C1333       C  0.12591052  0.58501693  0.76342426     0.20100
C1334       C  0.12908937  0.57453694  0.78924068     0.02200
C1335       C  0.12938863  0.58625282  0.81565288    -0.13800
C1336       C  0.12526259  0.60662314  0.81635004    -0.11500
C1337       C  0.12084686  0.61593283  0.79087979     0.01800
C1338       C  0.12204282  0.60553854  0.76447345    -0.23700
H1339       H  0.13191595  0.50718088  0.82892864     0.09800
H1340       H  0.13557207  0.54754460  0.83338086     0.13300
H1341       H  0.12390298  0.50860413  0.73699978     0.12100
H1342       H  0.12515583  0.54409655  0.71408331     0.13200
H1343       H  0.12333985  0.58244698  0.71692540     0.12300
H1344       H  0.13194988  0.57965994  0.83612736     0.09400
H1345       H  0.12463188  0.61451890  0.83698103     0.12600
H1346       H  0.11905445  0.61290602  0.74458588     0.14500
C1347       C  0.16535550  0.41608957  0.81285054    -0.01000
C1348       C  0.19005901  0.43620239  0.81113564    -0.09000
C1349       C  0.20913762  0.43743908  0.82892206    -0.17900
C1350       C  0.20413038  0.41848688  0.84927554     0.04500
C1351       C  0.17950427  0.39723287  0.84954320     0.18700
C1352       C  0.16037829  0.39629158  0.83159293    -0.19300
C1353       C  0.17397823  0.37738895  0.86828700    -0.20600
C1354       C  0.19222708  0.37847658  0.88728019    -0.19100
C1355       C  0.21630399  0.39968930  0.88855963     0.20100
C1356       C  0.22254004  0.42003432  0.86959640     0.02200
C1357       C  0.24673134  0.44135807  0.87231649    -0.13800
C1358       C  0.26408852  0.44232225  0.89257098    -0.11500
C1359       C  0.25824994  0.42210968  0.91083689     0.01800
C1360       C  0.23419684  0.40077994  0.90873138    -0.23700
H1361       H  0.19450470  0.45164750  0.79676687     0.09800
H1362       H  0.22754422  0.45367106  0.82644567     0.13300
H1363       H  0.14137382  0.38049473  0.83296061     0.12100
H1364       H  0.15534087  0.36097322  0.86840830     0.13200
H1365       H  0.18728824  0.36281017  0.90150532     0.12300
H1366       H  0.25281800  0.45776809  0.85926287     0.09400
H1367       H  0.28252565  0.45896477  0.89345409     0.12600
H1368       H  0.22948101  0.38491657  0.92255033     0.14500
loop_ 
_geom_bond_atom_site_label_1 
_geom_bond_atom_site_label_2 
_geom_bond_distance 
_geom_bond_site_symmetry_2 
_ccdc_geom_bond_type 
O1            C4   1.264       .  A
O1           Cd6   2.450       .  S
C2           O11   1.266       .  A
C2            O7   1.266       .  A
C2          C631   1.468       .  S
O3            C9   1.260       .  A
O3           Cd6   2.448       .  S
C4           O12   1.268       .  A
C4          C641   1.480       .  S
C5           O10   1.262       .  A
C5            O8   1.266       .  A
C5          C663   1.486       .  S
Cd6          O13   2.547       .  S
Cd6          O12   2.486       .  S
Cd6          O11   2.418       .  S
Cd6           O7   2.440       .  S
Cd6          O10   2.478       .  S
Cd6           O8   2.504       .  S
C9           O13   1.271       .  A
C9          C597   1.491       .  S
O14          C17   1.270       .  A
O14         Cd19   2.500       .  S
C15          O24   1.264       .  A
C15          O20   1.265       .  A
C15         C565   1.469       .  S
O16          C22   1.269       .  A
O16         Cd19   2.519       .  S
C17          O25   1.265       .  A
C17         C587   1.482       .  S
C18          O23   1.261       .  A
C18          O21   1.266       .  A
C18         C675   1.487       .  S
Cd19         O26   2.455       .  S
Cd19         O25   2.437       .  S
Cd19         O24   2.445       .  S
Cd19         O20   2.436       .  S
Cd19         O23   2.443       .  S
Cd19         O21   2.532       .  S
C22          O26   1.262       .  A
C22        C1227   1.486       .  S
O27          C30   1.266       .  A
O27        Cd716   2.415   1_554  S
C28          O37   1.269       .  A
C28          O33   1.265       .  A
C28         C575   1.484       .  S
O29          C35   1.262       .  A
O29         Cd32   2.480       .  S
C30         O722   1.267   1_554  A
C30         C487   1.468       .  S
C31          O36   1.270       .  A
C31          O34   1.261       .  A
C31         C465   1.486       .  S
Cd32         O39   2.485       .  S
Cd32         O38   2.461       .  S
Cd32         O37   2.487       .  S
Cd32         O33   2.461       .  S
Cd32         O36   2.537       .  S
Cd32         O34   2.432       .  S
Cd32        O711   2.403       .  S
C35          O39   1.266       .  A
C35         C509   1.484       .  S
O38         C714   1.266       .  A
O40          C43   1.264       .  A
O40         Cd45   2.430       .  S
C41          O50   1.266       .  A
C41          O46   1.264       .  A
C41         C421   1.471       .  S
O42          C48   1.262       .  A
O42         Cd45   2.454       .  S
C43          O51   1.270       .  A
C43         C455   1.480       .  S
C44          O49   1.268       .  A
C44          O47   1.261       .  A
C44         C521   1.489       .  S
Cd45         O52   2.528       .  S
Cd45         O51   2.499       .  S
Cd45         O50   2.458       .  S
Cd45         O46   2.426       .  S
Cd45         O49   2.542       .  S
Cd45         O47   2.446       .  S
C48          O52   1.270       .  A
C48         C411   1.490       .  S
O53          C56   1.263       .  A
O53         Cd58   2.439       .  S
C54          O63   1.268       .  A
C54          O59   1.267       .  A
C54         C355   1.468       .  S
O55          C61   1.259       .  A
O55         Cd58   2.414       .  S
C56          O64   1.268       .  A
C56         C443   1.480       .  S
C57          O62   1.261       .  A
C57          O60   1.268       .  A
C57         C333   1.487       .  S
Cd58         O65   2.566       .  S
Cd58         O64   2.493       .  S
Cd58         O63   2.422       .  S
Cd58         O59   2.428       .  S
Cd58         O62   2.455       .  S
Cd58         O60   2.523       .  S
C61          O65   1.272       .  A
C61         C389   1.490       .  S
O66          C69   1.266       .  A
O66         Cd71   2.417       .  S
C67          O76   1.262       .  A
C67          O72   1.270       .  A
C67         C653   1.477       .  S
O68          C74   1.271       .  A
O68         Cd71   2.554       .  S
C69          O77   1.267       .  A
C69         C311   1.470       .  S
C70          O75   1.270       .  A
C70          O73   1.262       .  A
C70         C289   1.490       .  S
Cd71         O78   2.412       .  S
Cd71         O77   2.449       .  S
Cd71         O76   2.404       .  S
Cd71         O72   2.514       .  S
Cd71         O75   2.534       .  S
Cd71         O73   2.453       .  S
C74          O78   1.258       .  A
C74         C345   1.487       .  S
O79          C82   1.269       .  A
O79         Cd84   2.498       .  S
C80          O89   1.266       .  A
C80          O85   1.265       .  A
C80         C323   1.470       .  S
O81          C87   1.271       .  A
O81        Cd768   2.534       .  S
C82          O90   1.264       .  A
C82         C257   1.480       .  S
C83          O88   1.264       .  A
C83          O86   1.263       .  A
C83         C279   1.486       .  S
Cd84         O91   2.455       .  S
Cd84         O90   2.437       .  S
Cd84         O89   2.449       .  S
Cd84         O85   2.427       .  S
Cd84         O88   2.489       .  S
Cd84         O86   2.486       .  S
Cd84        O765   2.526   1_554  S
C87         O775   1.263       .  A
C87         C301   1.490       .  S
O91         C771   1.262   1_554  A
O92          C95   1.271       .  A
O92         Cd97   2.513       .  S
C93         O102   1.266       .  A
C93          O98   1.265       .  A
C93         C499   1.469       .  S
O94         C100   1.271       .  A
O94         Cd97   2.543       .  S
C95         O103   1.265       .  A
C95         C223   1.485       .  S
C96         O101   1.264       .  A
C96          O99   1.264       .  A
C96         C267   1.487       .  S
Cd97        O104   2.434       .  S
Cd97        O103   2.436       .  S
Cd97        O102   2.456       .  S
Cd97         O98   2.412       .  S
Cd97        O101   2.501       .  S
Cd97         O99   2.489       .  S
C100        O104   1.259       .  A
C100        C477   1.487       .  S
O105        C108   1.263       .  A
O105       Cd110   2.430       .  S
C106        O115   1.266       .  A
C106        O111   1.265       .  A
C106        C433   1.471       .  S
O107        C113   1.272       .  A
O107       Cd110   2.561       .  S
C108        O116   1.271       .  A
C108        C179   1.487       .  S
C109        O114   1.265       .  A
C109        O112   1.265       .  A
C109        C213   1.494       .  S
Cd110       O117   2.431       .  S
Cd110       O116   2.530       .  S
Cd110       O115   2.459       .  S
Cd110       O111   2.415       .  S
Cd110       O114   2.516       .  S
Cd110       O112   2.502       .  S
C113        O117   1.260       .  A
C113        C399   1.491       .  S
O118        C121   1.264       .  A
O118       Cd807   2.431       .  S
C119        O128   1.270       .  A
C119        O124   1.265       .  A
C119        C245   1.481       .  S
O120        C126   1.264       .  A
O120       Cd123   2.525       .  S
C121        O813   1.266       .  A
C121        C619   1.470       .  S
C122        O127   1.260       .  A
C122        O125   1.269       .  A
C122        C609   1.492       .  S
Cd123       O129   2.429   1_554  S
Cd123       O128   2.494       .  S
Cd123       O124   2.435       .  S
Cd123       O127   2.461       .  S
Cd123       O125   2.546       .  S
Cd123       O802   2.434   1_554  S
Cd123       O814   2.487       .  S
C126        O814   1.263       .  A
C126        C885   1.492   1_554  S
O129        C805   1.266       .  A
O130        C810   1.263       .  A
O130       Cd807   2.468       .  S
O131        C134   1.265       .  A
O131       Cd136   2.439       .  S
C132        O141   1.265       .  A
C132        O137   1.264       .  A
C132        C553   1.468       .  S
O133        C139   1.261       .  A
O133       Cd136   2.446       .  S
C134        O142   1.270       .  A
C134        C235   1.480       .  S
C135        O140   1.265       .  A
C135        O138   1.265       .  A
C135        C169   1.492       .  S
Cd136       O143   2.545       .  S
Cd136       O142   2.480       .  S
Cd136       O141   2.457       .  S
Cd136       O137   2.409       .  S
Cd136       O140   2.500       .  S
Cd136       O138   2.499       .  S
C139        O143   1.273       .  A
C139        C531   1.492       .  S
O144        C147   1.263       .  A
O144       Cd149   2.445       .  S
C145        O154   1.270       .  A
C145        O150   1.265       .  A
C145        C191   1.480       .  S
O146        C152   1.264       .  A
O146       Cd149   2.522       .  S
C147        O155   1.264       .  A
C147        C367   1.468       .  S
C148        O153   1.269       .  A
C148        O151   1.262       .  A
C148        C377   1.487       .  S
Cd149       O156   2.470       .  S
Cd149       O155   2.433       .  S
Cd149       O154   2.499       .  S
Cd149       O150   2.441       .  S
Cd149       O153   2.504       .  S
Cd149       O151   2.471       .  S
C152        O156   1.263       .  A
C152        C157   1.488       .  S
C157        C158   1.403       .  A
C157        C162   1.402       .  A
C158        C159   1.405       .  A
C158        H171   1.083       .  S
C159        C160   1.418       .  A
C159        H172   1.078       .  S
C160        C166   1.438       .  A
C160        C161   1.422       .  A
C161        C163   1.399       .  A
C161        C162   1.405       .  A
C162        H173   1.084       .  S
C163        C164   1.389       .  A
C163        H174   1.084       .  S
C164        C165   1.399       .  A
C164        H175   1.084       .  S
C165        C166   1.424       .  A
C165        C170   1.409       .  A
C166        C167   1.416       .  A
C167        C168   1.403       .  A
C167        H176   1.077       .  S
C168        C169   1.404       .  A
C168        H177   1.083       .  S
C169        C170   1.403       .  A
C170        H178   1.084       .  S
C179        C180   1.401       .  A
C179        C184   1.404       .  A
C180        C181   1.403       .  A
C180        H193   1.083       .  S
C181        C182   1.419       .  A
C181        H194   1.078       .  S
C182        C188   1.434       .  A
C182        C183   1.421       .  A
C183        C185   1.400       .  A
C183        C184   1.404       .  A
C184        H195   1.085       .  S
C185        C186   1.389       .  A
C185        H196   1.084       .  S
C186        C187   1.399       .  A
C186        H197   1.084       .  S
C187        C188   1.425       .  A
C187        C192   1.408       .  A
C188        C189   1.414       .  A
C189        C190   1.398       .  A
C189        H198   1.078       .  S
C190        C191   1.401       .  A
C190        H199   1.083       .  S
C191        C192   1.400       .  A
C192        H200   1.085       .  S
C201        C810   1.491       .  S
C201        C202   1.403       .  A
C201        C206   1.403       .  A
C202        C203   1.406       .  A
C202        H899   1.083       .  S
C203        C204   1.418       .  A
C203        H216   1.077       .  S
C204        C210   1.439       .  A
C204        C205   1.422       .  A
C205        C207   1.399       .  A
C205        C206   1.407       .  A
C206        H217   1.084       .  S
C207        C208   1.390       .  A
C207        H218   1.084       .  S
C208        C209   1.399       .  A
C208        H219   1.084       .  S
C209        C210   1.423       .  A
C209        C214   1.409       .  A
C210        C211   1.417       .  A
C211        C212   1.405       .  A
C211        H220   1.077       .  S
C212        C213   1.404       .  A
C212        H221   1.083       .  S
C213        C214   1.404       .  A
C214        H222   1.084       .  S
H215        C886   1.083       .  S
C223        C224   1.402       .  A
C223        C228   1.403       .  A
C224        C225   1.395       .  A
C224        H237   1.083       .  S
C225        C226   1.413       .  A
C225        H238   1.077       .  S
C226        C232   1.431       .  A
C226        C227   1.424       .  A
C227        C229   1.400       .  A
C227        C228   1.410       .  A
C228        H239   1.084       .  S
C229        C230   1.392       .  A
C229        H240   1.084       .  S
C230        C231   1.400       .  A
C230        H241   1.084       .  S
C231        C232   1.421       .  A
C231        C236   1.406       .  A
C232        C233   1.417       .  A
C233        C234   1.398       .  A
C233        H242   1.077       .  S
C234        C235   1.399       .  A
C234        H243   1.083       .  S
C235        C236   1.404       .  A
C236        H244   1.084       .  S
C245        C246   1.400       .  A
C245        C250   1.403       .  A
C246        C247   1.399       .  A
C246        H259   1.083       .  S
C247        C248   1.417       .  A
C247        H260   1.077       .  S
C248        C254   1.431       .  A
C248        C249   1.421       .  A
C249        C251   1.400   1_554  A
C249        C250   1.404       .  A
C250        H261   1.084   1_554  S
C251        C252   1.390       .  A
C251        H262   1.084       .  S
C252        C253   1.399   1_556  A
C252        H263   1.084       .  S
C253        C254   1.424       .  A
C253        C258   1.407       .  A
C254        C255   1.413       .  A
C255        C256   1.395       .  A
C255        H264   1.077       .  S
C256        C257   1.401       .  A
C256        H265   1.083       .  S
C257        C258   1.400       .  A
C258        H266   1.084   1_554  S
C267        C268   1.402       .  A
C267        C272   1.403       .  A
C268        C269   1.401       .  A
C268        H281   1.083       .  S
C269        C270   1.417       .  A
C269        H282   1.077       .  S
C270        C276   1.435       .  A
C270        C271   1.423       .  A
C271        C273   1.400       .  A
C271        C272   1.407       .  A
C272        H283   1.084       .  S
C273        C274   1.390       .  A
C273        H284   1.084       .  S
C274        C275   1.399       .  A
C274        H285   1.084       .  S
C275        C276   1.423       .  A
C275        C280   1.408       .  A
C276        C277   1.416       .  A
C277        C278   1.400       .  A
C277        H286   1.077       .  S
C278        C279   1.402       .  A
C278        H287   1.083       .  S
C279        C280   1.403       .  A
C280        H288   1.084       .  S
C289        C290   1.404       .  A
C289        C294   1.402       .  A
C290        C291   1.399       .  A
C290        H303   1.083       .  S
C291        C292   1.413       .  A
C291        H304   1.077   1_455  S
C292        C298   1.436   1_455  A
C292        C293   1.425       .  A
C293        C295   1.399       .  A
C293        C294   1.412       .  A
C294        H305   1.084       .  S
C295        C296   1.391       .  A
C295        H306   1.084       .  S
C296        C297   1.401   1_455  A
C296        H307   1.084       .  S
C297        C298   1.421       .  A
C297        C302   1.407       .  A
C298        C299   1.419       .  A
C299        C300   1.404       .  A
C299        H308   1.077       .  S
C300        C301   1.401       .  A
C300        H309   1.083       .  S
C301        C302   1.406       .  A
C302        H310   1.084       .  S
C311        C312   1.398       .  A
C311        C316   1.401       .  A
C312        C313   1.390       .  A
C312        H325   1.083       .  S
C313        C314   1.413   1_455  A
C313        H326   1.076   1_455  S
C314        C320   1.423       .  A
C314        C315   1.422   1_655  A
C315        C317   1.400       .  A
C315        C316   1.403       .  A
C316        H327   1.084       .  S
C317        C318   1.390   1_455  A
C317        H328   1.084       .  S
C318        C319   1.400       .  A
C318        H329   1.084       .  S
C319        C320   1.421       .  A
C319        C324   1.402       .  A
C320        C321   1.413       .  A
C321        C322   1.390       .  A
C321        H330   1.076       .  S
C322        C323   1.398       .  A
C322        H331   1.083       .  S
C323        C324   1.401       .  A
C324        H332   1.084       .  S
C333        C334   1.400       .  A
C333        C338   1.406       .  A
C334        C335   1.401       .  A
C334        H347   1.083       .  S
C335        C336   1.418       .  A
C335        H348   1.077       .  S
C336        C342   1.434       .  A
C336        C337   1.420       .  A
C337        C339   1.401       .  A
C337        C338   1.407       .  A
C338        H349   1.084       .  S
C339        C340   1.392       .  A
C339        H350   1.084       .  S
C340        C341   1.399       .  A
C340        H351   1.084       .  S
C341        C342   1.426       .  A
C341        C346   1.413       .  A
C342        C343   1.411       .  A
C343        C344   1.394       .  A
C343        H352   1.077       .  S
C344        C345   1.404       .  A
C344        H353   1.083       .  S
C345        C346   1.402       .  A
C346        H354   1.084       .  S
C355        C356   1.399       .  A
C355        C360   1.398       .  A
C356        C357   1.393       .  A
C356        H369   1.083       .  S
C357        C358   1.414       .  A
C357        H370   1.076       .  S
C358        C364   1.424   1_565  A
C358        C359   1.422       .  A
C359        C361   1.398       .  A
C359        C360   1.398       .  A
C360        H371   1.084       .  S
C361        C362   1.386   1_565  A
C361        H372   1.084       .  S
C362        C363   1.398       .  A
C362        H373   1.084       .  S
C363        C364   1.422       .  A
C363        C368   1.398       .  A
C364        C365   1.415       .  A
C365        C366   1.394       .  A
C365        H374   1.076       .  S
C366        C367   1.399       .  A
C366        H375   1.084       .  S
C367        C368   1.398       .  A
C368        H376   1.084       .  S
C377        C378   1.399       .  A
C377        C382   1.407       .  A
C378        C379   1.398       .  A
C378        H391   1.083       .  S
C379        C380   1.417       .  A
C379        H392   1.078       .  S
C380        C381   1.421       .  A
C380       C1070   1.433   1_545  A
C381        C383   1.402   1_545  A
C381        C382   1.410       .  A
C382        H393   1.084       .  S
C383        C384   1.394       .  A
C383        H394   1.084       .  S
C384       C1069   1.401       .  A
C384        H395   1.084       .  S
C385        C386   1.425       .  A
C385        C390   1.415       .  A
C385       C1068   1.400   1_554  A
C386        C387   1.411       .  A
C386       C1064   1.434   1_564  A
C387        C388   1.394       .  A
C387        H396   1.077   1_565  S
C388        C389   1.404       .  A
C388        H397   1.083       .  S
C389        C390   1.403       .  A
C390        H398   1.084       .  S
C399        C400   1.401       .  A
C399        C404   1.406       .  A
C400        C401   1.406       .  A
C400        H413   1.083       .  S
C401        C402   1.420       .  A
C401        H414   1.077       .  S
C402        C408   1.437   1_545  A
C402        C403   1.420       .  A
C403        C405   1.401   1_545  A
C403        C404   1.406       .  A
C404        H415   1.084       .  S
C405        C406   1.390       .  A
C405        H416   1.084       .  S
C406        C407   1.399       .  A
C406        H417   1.084       .  S
C407        C408   1.425       .  A
C407        C412   1.411       .  A
C408        C409   1.413       .  A
C409        C410   1.400       .  A
C409        H418   1.077   1_565  S
C410        C411   1.404       .  A
C410        H419   1.083       .  S
C411        C412   1.402       .  A
C412        H420   1.084       .  S
C421        C422   1.399       .  A
C421        C426   1.399       .  A
C422        C423   1.394       .  A
C422        H435   1.083       .  S
C423        C424   1.414       .  A
C423       H1120   1.077   1_554  S
C424        C425   1.422       .  A
C424       C1114   1.425   1_564  A
C425        C427   1.398   1_565  A
C425        C426   1.398       .  A
C426        H437   1.085       .  S
C427        C428   1.385   1_554  A
C427        H438   1.084       .  S
C428       C1113   1.398       .  A
C428        H439   1.084       .  S
C429        C430   1.422       .  A
C429        C434   1.397       .  A
C429       C1112   1.397       .  A
C430        C431   1.416       .  A
C430       C1108   1.427   1_545  A
C431        C432   1.396       .  A
C431        H440   1.077       .  S
C432        C433   1.399       .  A
C432        H441   1.083       .  S
C433        C434   1.398       .  A
C434        H442   1.085       .  S
H436       C1107   1.077       .  S
C443        C444   1.399       .  A
C443        C448   1.403       .  A
C444        C445   1.398       .  A
C444        H457   1.083       .  S
C445        C446   1.417       .  A
C445        H458   1.077       .  S
C446        C452   1.430       .  A
C446        C447   1.421       .  A
C447        C449   1.400       .  A
C447        C448   1.404       .  A
C448        H459   1.084       .  S
C449        C450   1.390       .  A
C449        H460   1.084       .  S
C450        C451   1.399       .  A
C450        H461   1.084       .  S
C451        C452   1.424       .  A
C451        C456   1.408       .  A
C452        C453   1.413       .  A
C453        C454   1.395       .  A
C453        H462   1.077       .  S
C454        C455   1.401       .  A
C454        H463   1.083       .  S
C455        C456   1.401       .  A
C456        H464   1.084       .  S
C465        C466   1.403       .  A
C465        C470   1.402       .  A
C466        C467   1.395       .  A
C466        H479   1.083       .  S
C467        C468   1.412       .  A
C467        H480   1.077       .  S
C468        C474   1.433       .  A
C468        C469   1.425       .  A
C469        C471   1.400       .  A
C469        C470   1.412       .  A
C470        H481   1.084       .  S
C471        C472   1.392       .  A
C471        H482   1.084       .  S
C472        C473   1.401       .  A
C472        H483   1.084       .  S
C473        C474   1.420       .  A
C473        C478   1.406       .  A
C474        C475   1.419       .  A
C475        C476   1.402       .  A
C475        H484   1.077       .  S
C476        C477   1.399       .  A
C476        H485   1.083       .  S
C477        C478   1.407       .  A
C478        H486   1.084       .  S
C487        C488   1.399       .  A
C487        C492   1.397       .  A
C488        C489   1.396       .  A
C488        H501   1.083       .  S
C489        C490   1.416       .  A
C489        H502   1.077       .  S
C490        C496   1.426       .  A
C490        C491   1.422       .  A
C491        C493   1.397       .  A
C491        C492   1.396       .  A
C492       H1187   1.085       .  S
C493        C494   1.384       .  A
C493        H504   1.084       .  S
C494        C495   1.397       .  A
C494        H505   1.084       .  S
C495        C496   1.422       .  A
C495        C500   1.396       .  A
C496        C497   1.416       .  A
C497        C498   1.396       .  A
C497        H506   1.077       .  S
C498        C499   1.399       .  A
C498        H507   1.083       .  S
C499        C500   1.397       .  A
C500        H508   1.085       .  S
H503       C1176   1.085       .  S
C509        C514   1.406       .  A
C509       C1194   1.399       .  A
C510        C511   1.398       .  A
C510       C1193   1.400       .  A
C510        H523   1.083       .  S
C511        C512   1.416   1_556  A
C511        H524   1.077       .  S
C512        C518   1.433       .  A
C512        C513   1.421       .  A
C513        C515   1.402       .  A
C513       C1198   1.410       .  A
C514       C1197   1.409       .  A
C514        H525   1.084       .  S
C515        C516   1.394       .  A
C515        H526   1.084       .  S
C516        C517   1.401       .  A
C516        H527   1.084       .  S
C517        C518   1.424       .  A
C517        C522   1.413       .  A
C518        C519   1.412       .  A
C519        C520   1.395       .  A
C519        H528   1.077       .  S
C520        C521   1.403       .  A
C520        H529   1.083       .  S
C521        C522   1.404       .  A
C522        H530   1.084       .  S
C531        C532   1.400       .  A
C531        C536   1.407       .  A
C532        C533   1.404       .  A
C532        H545   1.083       .  S
C533        C534   1.418       .  A
C533        H546   1.077       .  S
C534        C540   1.436       .  A
C534        C535   1.421       .  A
C535        C537   1.402       .  A
C535        C536   1.408       .  A
C536        H547   1.084       .  S
C537        C538   1.392       .  A
C537        H548   1.084       .  S
C538        C539   1.400       .  A
C538        H549   1.084       .  S
C539        C540   1.424       .  A
C539        C544   1.411       .  A
C540        C541   1.414       .  A
C541        C542   1.399       .  A
C541        H550   1.077       .  S
C542        C543   1.403       .  A
C542        H551   1.083       .  S
C543        C706   1.489       .  S
C543        C544   1.403       .  A
C544        H552   1.084       .  S
C553        C554   1.398       .  A
C553        C558   1.398       .  A
C554        C555   1.395       .  A
C554        H567   1.083       .  S
C555        C556   1.416       .  A
C555        H568   1.077       .  S
C556        C562   1.425       .  A
C556        C557   1.421       .  A
C557        C559   1.398       .  A
C557        C558   1.396       .  A
C558        H569   1.085       .  S
C559        C560   1.385       .  A
C559        H570   1.084       .  S
C560        C561   1.398       .  A
C560        H571   1.084       .  S
C561        C562   1.423       .  A
C561        C566   1.398       .  A
C562        C563   1.414       .  A
C563        C564   1.394       .  A
C563        H572   1.077       .  S
C564        C565   1.399       .  A
C564        H573   1.083       .  S
C565        C566   1.398       .  A
C566        H574   1.085       .  S
C575        C576   1.400       .  A
C575        C580   1.405       .  A
C576        C577   1.398       .  A
C576        H589   1.083       .  S
C577        C578   1.416       .  A
C577        H590   1.077       .  S
C578        C584   1.432       .  A
C578        C579   1.422       .  A
C579        C581   1.401       .  A
C579        C580   1.408       .  A
C580        H591   1.084       .  S
C581        C582   1.392       .  A
C581        H592   1.084       .  S
C582        C583   1.400       .  A
C582        H593   1.084       .  S
C583        C584   1.424       .  A
C583        C588   1.409       .  A
C584        C585   1.414       .  A
C585        C586   1.395       .  A
C585        H594   1.077       .  S
C586        C587   1.401       .  A
C586        H595   1.083       .  S
C587        C588   1.402       .  A
C588        H596   1.084       .  S
C597        C598   1.400       .  A
C597        C602   1.407       .  A
C598        C599   1.404       .  A
C598        H611   1.083       .  S
C599        C600   1.419       .  A
C599        H612   1.077       .  S
C600        C606   1.437   1_455  A
C600        C601   1.421       .  A
C601        C603   1.401   1_455  A
C601        C602   1.407       .  A
C602        H613   1.084       .  S
C603        C604   1.391       .  A
C603        H614   1.084       .  S
C604        C605   1.399       .  A
C604        H615   1.084       .  S
C605        C606   1.425       .  A
C605        C610   1.412       .  A
C606        C607   1.413   1_655  A
C607        C608   1.399   1_455  A
C607        H616   1.077       .  S
C608        C609   1.405       .  A
C608        H617   1.083       .  S
C609        C610   1.403       .  A
C610        H618   1.084       .  S
C619        C620   1.399       .  A
C619        C624   1.399       .  A
C620        C621   1.391       .  A
C620        H633   1.083       .  S
C621        C622   1.413       .  A
C621        H634   1.079       .  S
C622        C628   1.424   1_655  A
C622        C623   1.423       .  A
C623        C625   1.398       .  A
C623        C624   1.401       .  A
C624        H635   1.085       .  S
C625        C626   1.387   1_655  A
C625        H636   1.084       .  S
C626        C627   1.398       .  A
C626        H637   1.084       .  S
C627        C628   1.422       .  A
C627        C632   1.398       .  A
C628        C629   1.415       .  A
C629        C630   1.392       .  A
C629        H638   1.079       .  S
C630        C631   1.398       .  A
C630        H639   1.083       .  S
C631        C632   1.399       .  A
C632        H640   1.085       .  S
C641        C642   1.402       .  A
C641        C646   1.399       .  A
C642        C643   1.398       .  A
C642        H655   1.083       .  S
C643        C644   1.414       .  A
C643        H656   1.076       .  S
C644        C650   1.431       .  A
C644        C645   1.424       .  A
C645        C647   1.398       .  A
C645        C646   1.404       .  A
C646        H657   1.084       .  S
C647        C648   1.387       .  A
C647        H658   1.084       .  S
C648        C649   1.399       .  A
C648        H659   1.084       .  S
C649        C650   1.420       .  A
C649        C654   1.399       .  A
C650        C651   1.419       .  A
C651        C652   1.402       .  A
C651        H660   1.076       .  S
C652        C653   1.399       .  A
C652        H661   1.083       .  S
C653        C654   1.401       .  A
C654        H662   1.084       .  S
C663        C664   1.400       .  A
C663        C668   1.406       .  A
C664        C665   1.398       .  A
C664        H677   1.083       .  S
C665        C666   1.416       .  A
C665        H678   1.078       .  S
C666        C672   1.432       .  A
C666        C667   1.420       .  A
C667        C669   1.402       .  A
C667        C668   1.410       .  A
C668        H679   1.084       .  S
C669        C670   1.395       .  A
C669        H680   1.084       .  S
C670        C671   1.401       .  A
C670        H681   1.084       .  S
C671        C672   1.424       .  A
C671        C676   1.413       .  A
C672        C673   1.412       .  A
C673        C674   1.394       .  A
C673        H682   1.077       .  S
C674        C675   1.402       .  A
C674        H683   1.083       .  S
C675        C676   1.405       .  A
C676        H684   1.084       .  S
O685        C688   1.264       .  A
O685       Cd690   2.458       .  S
C686        O695   1.266       .  A
C686        O691   1.266       .  A
C686       C1315   1.466       .  S
O687        C693   1.260       .  A
O687       Cd690   2.452       .  S
C688        O696   1.268       .  A
C688       C1325   1.481       .  S
C689        O694   1.262       .  A
C689        O692   1.267       .  A
C689       C1347   1.486       .  S
Cd690       O697   2.550       .  S
Cd690       O696   2.482       .  S
Cd690       O695   2.418       .  S
Cd690       O691   2.429       .  S
Cd690       O694   2.480       .  S
Cd690       O692   2.496       .  S
C693        O697   1.270       .  A
C693       C1281   1.492       .  S
O698        C701   1.270       .  A
O698       Cd703   2.501       .  S
C699        O708   1.264       .  A
C699        O704   1.264       .  A
C699       C1249   1.469       .  S
O700        C706   1.269       .  A
O700       Cd703   2.522   1_554  S
C701        O709   1.265       .  A
C701       C1271   1.482       .  S
C702        O707   1.262       .  A
C702        O705   1.266       .  A
C702       C1359   1.488       .  S
Cd703       O710   2.461       .  S
Cd703       O709   2.447       .  S
Cd703       O708   2.458       .  S
Cd703       O704   2.419       .  S
Cd703       O707   2.448       .  S
Cd703       O705   2.530       .  S
C706        O710   1.263   1_554  A
O711        C714   1.265       .  A
C712        O721   1.269       .  A
C712        O717   1.264       .  A
C712       C1259   1.486       .  S
O713        C719   1.262       .  A
O713       Cd716   2.478       .  S
C714       C1171   1.469       .  S
C715        O720   1.269       .  A
C715        O718   1.261       .  A
C715       C1149   1.486       .  S
Cd716       O723   2.500       .  S
Cd716       O722   2.452       .  S
Cd716       O721   2.498       .  S
Cd716       O717   2.467       .  S
Cd716       O720   2.535       .  S
Cd716       O718   2.443       .  S
C719        O723   1.267       .  A
C719       C1193   1.486       .  S
O724        C727   1.264       .  A
O724       Cd729   2.431       .  S
C725        O734   1.266       .  A
C725        O730   1.265       .  A
C725       C1105   1.471       .  S
O726        C732   1.262       .  A
O726       Cd729   2.452       .  S
C727        O735   1.270       .  A
C727       C1139   1.483       .  S
C728        O733   1.268       .  A
C728        O731   1.261       .  A
C728       C1205   1.487       .  S
Cd729       O736   2.527       .  S
Cd729       O735   2.512       .  S
Cd729       O734   2.462       .  S
Cd729       O730   2.420       .  S
Cd729       O733   2.539       .  S
Cd729       O731   2.438       .  S
C732        O736   1.270       .  A
C732       C1095   1.489       .  S
O737        C740   1.264       .  A
O737       Cd742   2.434       .  S
C738        O747   1.267       .  A
C738        O743   1.267       .  A
C738       C1039   1.471       .  S
O739        C745   1.260       .  A
O739       Cd742   2.424       .  S
C740        O748   1.269       .  A
C740       C1127   1.481       .  S
C741        O746   1.262       .  A
C741        O744   1.267       .  A
C741       C1017   1.489       .  S
Cd742       O749   2.561       .  S
Cd742       O748   2.501       .  S
Cd742       O747   2.437       .  S
Cd742       O743   2.438       .  S
Cd742       O746   2.474       .  S
Cd742       O744   2.514       .  S
C745        O749   1.271       .  A
C745       C1073   1.490       .  S
O750        C753   1.265       .  A
O750       Cd755   2.421       .  S
C751        O760   1.263       .  A
C751        O756   1.270       .  A
C751       C1337   1.478       .  S
O752        C758   1.269       .  A
O752       Cd755   2.549       .  S
C753        O761   1.267       .  A
C753        C995   1.469       .  S
C754        O759   1.271       .  A
C754        O757   1.262       .  A
C754        C973   1.491       .  S
Cd755       O762   2.434       .  S
Cd755       O761   2.450       .  S
Cd755       O760   2.413       .  S
Cd755       O756   2.504       .  S
Cd755       O759   2.537       .  S
Cd755       O757   2.452       .  S
C758        O762   1.259       .  A
C758       C1029   1.488       .  S
O763        C766   1.269       .  A
O763       Cd768   2.498       .  S
C764        O773   1.265       .  A
C764        O769   1.265       .  A
C764       C1007   1.468       .  S
O765        C771   1.270       .  A
C766        O774   1.263       .  A
C766        C941   1.480       .  S
C767        O772   1.265       .  A
C767        O770   1.263       .  A
C767        C963   1.485       .  S
Cd768       O775   2.446       .  S
Cd768       O774   2.437       .  S
Cd768       O773   2.434       .  S
Cd768       O769   2.434       .  S
Cd768       O772   2.492       .  S
Cd768       O770   2.472       .  S
C771        C985   1.490       .  S
O776        C779   1.271       .  A
O776       Cd781   2.518       .  S
C777        O786   1.266       .  A
C777        O782   1.265       .  A
C777       C1183   1.467       .  S
O778        C784   1.271       .  A
O778       Cd781   2.536       .  S
C779        O787   1.264       .  A
C779        C907   1.485       .  S
C780        O785   1.264       .  A
C780        O783   1.263       .  A
C780        C951   1.486       .  S
Cd781       O788   2.428       .  S
Cd781       O787   2.428       .  S
Cd781       O786   2.454       .  S
Cd781       O782   2.402       .  S
Cd781       O785   2.497       .  S
Cd781       O783   2.484       .  S
C784        O788   1.259       .  A
C784       C1161   1.485       .  S
O789        C792   1.263       .  A
O789       Cd794   2.423       .  S
C790        O799   1.266       .  A
C790        O795   1.263       .  A
C790       C1117   1.467       .  S
O791        C797   1.272       .  A
O791       Cd794   2.564       .  S
C792        O800   1.273       .  A
C792        C863   1.485       .  S
C793        O798   1.266       .  A
C793        O796   1.265       .  A
C793        C897   1.495       .  S
Cd794       O801   2.448       .  S
Cd794       O800   2.522       .  S
Cd794       O799   2.461       .  S
Cd794       O795   2.395       .  S
Cd794       O798   2.520       .  S
Cd794       O796   2.498       .  S
C797        O801   1.261       .  A
C797       C1083   1.494       .  S
O802        C805   1.265       .  A
C803        O812   1.269       .  A
C803        O808   1.265       .  A
C803        C929   1.481       .  S
O804        C810   1.267       .  A
O804       Cd807   2.527       .  S
C805       C1303   1.467       .  S
C806        O811   1.262       .  A
C806        O809   1.270       .  A
C806       C1293   1.493       .  S
Cd807       O813   2.455       .  S
Cd807       O812   2.485       .  S
Cd807       O808   2.446       .  S
Cd807       O811   2.461       .  S
Cd807       O809   2.542       .  S
O815        C818   1.266       .  A
O815       Cd820   2.437       .  S
C816        O825   1.265       .  A
C816        O821   1.264       .  A
C816       C1237   1.469       .  S
O817        C823   1.261       .  A
O817       Cd820   2.434       .  S
C818        O826   1.270       .  A
C818        C919   1.480       .  S
C819        O824   1.266       .  A
C819        O822   1.265       .  A
C819        C853   1.491       .  S
Cd820       O827   2.536       .  S
Cd820       O826   2.483       .  S
Cd820       O825   2.465       .  S
Cd820       O821   2.408       .  S
Cd820       O824   2.507       .  S
Cd820       O822   2.490       .  S
C823        O827   1.272       .  A
C823       C1215   1.488       .  S
O828        C831   1.264       .  A
O828       Cd833   2.437       .  S
C829        O838   1.270       .  A
C829        O834   1.264       .  A
C829        C875   1.479       .  S
O830        C836   1.266       .  A
O830       Cd833   2.529       .  S
C831        O839   1.265       .  A
C831       C1051   1.470       .  S
C832        O837   1.270       .  A
C832        O835   1.262       .  A
C832       C1061   1.489       .  S
Cd833       O840   2.469       .  S
Cd833       O839   2.445       .  S
Cd833       O838   2.504       .  S
Cd833       O834   2.433       .  S
Cd833       O837   2.518       .  S
Cd833       O835   2.465       .  S
C836        O840   1.262       .  A
C836        C841   1.490       .  S
C841        C842   1.403       .  A
C841        C846   1.403       .  A
C842        C843   1.405       .  A
C842        H855   1.083       .  S
C843        C844   1.418       .  A
C843        H856   1.077       .  S
C844        C850   1.438       .  A
C844        C845   1.422       .  A
C845        C847   1.399       .  A
C845        C846   1.406       .  A
C846        H857   1.084       .  S
C847        C848   1.389       .  A
C847        H858   1.084       .  S
C848        C849   1.399       .  A
C848        H859   1.084       .  S
C849        C850   1.423       .  A
C849        C854   1.408       .  A
C850        C851   1.416       .  A
C851        C852   1.403       .  A
C851        H860   1.077       .  S
C852        C853   1.403       .  A
C852        H861   1.083       .  S
C853        C854   1.403       .  A
C854        H862   1.084       .  S
C863        C864   1.399       .  A
C863        C868   1.405       .  A
C864        C865   1.401       .  A
C864        H877   1.083       .  S
C865        C866   1.418       .  A
C865        H878   1.077       .  S
C866        C872   1.433       .  A
C866        C867   1.421       .  A
C867        C869   1.401       .  A
C867        C868   1.405       .  A
C868        H879   1.085       .  S
C869        C870   1.390       .  A
C869        H880   1.084       .  S
C870        C871   1.399       .  A
C870        H881   1.084       .  S
C871        C872   1.425       .  A
C871        C876   1.409       .  A
C872        C873   1.413       .  A
C873        C874   1.396       .  A
C873        H882   1.077       .  S
C874        C875   1.400       .  A
C874        H883   1.083       .  S
C875        C876   1.400       .  A
C876        H884   1.085       .  S
C885        C886   1.404       .  A
C885        C890   1.402       .  A
C886        C887   1.407       .  A
C887        C888   1.418       .  A
C887        H900   1.078       .  S
C888        C894   1.440       .  A
C888        C889   1.423       .  A
C889        C891   1.399       .  A
C889        C890   1.407       .  A
C890        H901   1.084       .  S
C891        C892   1.389       .  A
C891        H902   1.084       .  S
C892        C893   1.399       .  A
C892        H903   1.084       .  S
C893        C894   1.423       .  A
C893        C898   1.409       .  A
C894        C895   1.417       .  A
C895        C896   1.406       .  A
C895        H904   1.078       .  S
C896        C897   1.404       .  A
C896        H905   1.083       .  S
C897        C898   1.404       .  A
C898        H906   1.084       .  S
C907        C908   1.402       .  A
C907        C912   1.403       .  A
C908        C909   1.395       .  A
C908        H921   1.083       .  S
C909        C910   1.412       .  A
C909        H922   1.077       .  S
C910        C916   1.432       .  A
C910        C911   1.424       .  A
C911        C913   1.400       .  A
C911        C912   1.411       .  A
C912        H923   1.084       .  S
C913        C914   1.392       .  A
C913        H924   1.084       .  S
C914        C915   1.400       .  A
C914        H925   1.084       .  S
C915        C916   1.421       .  A
C915        C920   1.406       .  A
C916        C917   1.417       .  A
C917        C918   1.398       .  A
C917        H926   1.077       .  S
C918        C919   1.399       .  A
C918        H927   1.083       .  S
C919        C920   1.403       .  A
C920        H928   1.084       .  S
C929        C930   1.400       .  A
C929        C934   1.403       .  A
C930        C931   1.398       .  A
C930        H943   1.083       .  S
C931        C932   1.416       .  A
C931        H944   1.077       .  S
C932        C938   1.430       .  A
C932        C933   1.421       .  A
C933        C935   1.400       .  A
C933        C934   1.405       .  A
C934        H945   1.084       .  S
C935        C936   1.390       .  A
C935        H946   1.084       .  S
C936        C937   1.399       .  A
C936        H947   1.084       .  S
C937        C938   1.424       .  A
C937        C942   1.407       .  A
C938        C939   1.413       .  A
C939        C940   1.395       .  A
C939        H948   1.077       .  S
C940        C941   1.401       .  A
C940        H949   1.083       .  S
C941        C942   1.401       .  A
C942        H950   1.084       .  S
C951        C952   1.402       .  A
C951        C956   1.403       .  A
C952        C953   1.400       .  A
C952        H965   1.083       .  S
C953        C954   1.416       .  A
C953        H966   1.077       .  S
C954        C960   1.434       .  A
C954        C955   1.422       .  A
C955        C957   1.400       .  A
C955        C956   1.407       .  A
C956        H967   1.084       .  S
C957        C958   1.390       .  A
C957        H968   1.084       .  S
C958        C959   1.400       .  A
C958        H969   1.084       .  S
C959        C960   1.423       .  A
C959        C964   1.408       .  A
C960        C961   1.415       .  A
C961        C962   1.399       .  A
C961        H970   1.077       .  S
C962        C963   1.402       .  A
C962        H971   1.083       .  S
C963        C964   1.403       .  A
C964        H972   1.084       .  S
C973        C974   1.405       .  A
C973        C978   1.403       .  A
C974        C975   1.399       .  A
C974        H987   1.083       .  S
C975        C976   1.413       .  A
C975        H988   1.077   1_455  S
C976        C982   1.436   1_455  A
C976        C977   1.425       .  A
C977        C979   1.399       .  A
C977        C978   1.412       .  A
C978        H989   1.084       .  S
C979        C980   1.392       .  A
C979        H990   1.084       .  S
C980        C981   1.401   1_455  A
C980        H991   1.084       .  S
C981        C982   1.421       .  A
C981        C986   1.408       .  A
C982        C983   1.418       .  A
C983        C984   1.403       .  A
C983        H992   1.077       .  S
C984        C985   1.400       .  A
C984        H993   1.083       .  S
C985        C986   1.406       .  A
C986        H994   1.084       .  S
C995        C996   1.399       .  A
C995       C1000   1.399       .  A
C996        C997   1.391       .  A
C996       H1009   1.083       .  S
C997        C998   1.413   1_455  A
C997       H1010   1.076   1_455  S
C998       C1004   1.422       .  A
C998        C999   1.422   1_655  A
C999       C1001   1.399       .  A
C999       C1000   1.401       .  A
C1000      H1011   1.084       .  S
C1001      C1002   1.389   1_455  A
C1001      H1012   1.084       .  S
C1002      C1003   1.399       .  A
C1002      H1013   1.084       .  S
C1003      C1004   1.420       .  A
C1003      C1008   1.400       .  A
C1004      C1005   1.413       .  A
C1005      C1006   1.391       .  A
C1005      H1014   1.077       .  S
C1006      C1007   1.398       .  A
C1006      H1015   1.083       .  S
C1007      C1008   1.400       .  A
C1008      H1016   1.084       .  S
C1017      C1018   1.401       .  A
C1017      C1022   1.405       .  A
C1018      C1019   1.401       .  A
C1018      H1031   1.083       .  S
C1019      C1020   1.417       .  A
C1019      H1032   1.077       .  S
C1020      C1026   1.435       .  A
C1020      C1021   1.421       .  A
C1021      C1023   1.401       .  A
C1021      C1022   1.409       .  A
C1022      H1033   1.084       .  S
C1023      C1024   1.392       .  A
C1023      H1034   1.084       .  S
C1024      C1025   1.399       .  A
C1024      H1035   1.084       .  S
C1025      C1026   1.425       .  A
C1025      C1030   1.412       .  A
C1026      C1027   1.412       .  A
C1027      C1028   1.396       .  A
C1027      H1036   1.077       .  S
C1028      C1029   1.404       .  A
C1028      H1037   1.083       .  S
C1029      C1030   1.402       .  A
C1030      H1038   1.084       .  S
C1039      C1040   1.399       .  A
C1039      C1044   1.400       .  A
C1040      C1041   1.393       .  A
C1040      H1053   1.083       .  S
C1041      C1042   1.414       .  A
C1041      H1054   1.077       .  S
C1042      C1048   1.425   1_565  A
C1042      C1043   1.422       .  A
C1043      C1045   1.399       .  A
C1043      C1044   1.401       .  A
C1044      H1055   1.085       .  S
C1045      C1046   1.388   1_565  A
C1045      H1056   1.084       .  S
C1046      C1047   1.398       .  A
C1046      H1057   1.084       .  S
C1047      C1048   1.422       .  A
C1047      C1052   1.401       .  A
C1048      C1049   1.414       .  A
C1049      C1050   1.392       .  A
C1049      H1058   1.077   1_545  S
C1050      C1051   1.399       .  A
C1050      H1059   1.083       .  S
C1051      C1052   1.399       .  A
C1052      H1060   1.085       .  S
C1061      C1062   1.400       .  A
C1061      C1066   1.407       .  A
C1062      C1063   1.400       .  A
C1062      H1075   1.083       .  S
C1063      C1064   1.418       .  A
C1063      H1076   1.077   1_556  S
C1064      C1065   1.420       .  A
C1065      C1067   1.402   1_545  A
C1065      C1066   1.410       .  A
C1066      H1077   1.084       .  S
C1067      C1068   1.394       .  A
C1067      H1078   1.084       .  S
C1068      H1079   1.084       .  S
C1069      C1070   1.425       .  A
C1069      C1074   1.415       .  A
C1070      C1071   1.411       .  A
C1071      C1072   1.394       .  A
C1071      H1080   1.078   1_565  S
C1072      C1073   1.404       .  A
C1072      H1081   1.083       .  S
C1073      C1074   1.404       .  A
C1074      H1082   1.084       .  S
C1083      C1084   1.401       .  A
C1083      C1088   1.406       .  A
C1084      C1085   1.407       .  A
C1084      H1097   1.083       .  S
C1085      C1086   1.420       .  A
C1085      H1098   1.077       .  S
C1086      C1092   1.438   1_545  A
C1086      C1087   1.420       .  A
C1087      C1089   1.401   1_545  A
C1087      C1088   1.407       .  A
C1088      H1099   1.084       .  S
C1089      C1090   1.391       .  A
C1089      H1100   1.084       .  S
C1090      C1091   1.399       .  A
C1090      H1101   1.084       .  S
C1091      C1092   1.425       .  A
C1091      C1096   1.411       .  A
C1092      C1093   1.414       .  A
C1093      C1094   1.400       .  A
C1093      H1102   1.077   1_565  S
C1094      C1095   1.404       .  A
C1094      H1103   1.083       .  S
C1095      C1096   1.402       .  A
C1096      H1104   1.084       .  S
C1105      C1106   1.399       .  A
C1105      C1110   1.398       .  A
C1106      C1107   1.396       .  A
C1106      H1119   1.083       .  S
C1107      C1108   1.415       .  A
C1108      C1109   1.422       .  A
C1109      C1111   1.398   1_565  A
C1109      C1110   1.398       .  A
C1110      H1121   1.085       .  S
C1111      C1112   1.385       .  A
C1111      H1122   1.084       .  S
C1112      H1123   1.084       .  S
C1113      C1114   1.421       .  A
C1113      C1118   1.396       .  A
C1114      C1115   1.416       .  A
C1115      C1116   1.395       .  A
C1115      H1124   1.077       .  S
C1116      C1117   1.398       .  A
C1116      H1125   1.083       .  S
C1117      C1118   1.398       .  A
C1118      H1126   1.085       .  S
C1127      C1128   1.400       .  A
C1127      C1132   1.403       .  A
C1128      C1129   1.400       .  A
C1128      H1141   1.083       .  S
C1129      C1130   1.418       .  A
C1129      H1142   1.077       .  S
C1130      C1136   1.431       .  A
C1130      C1131   1.420       .  A
C1131      C1133   1.400       .  A
C1131      C1132   1.403       .  A
C1132      H1143   1.084       .  S
C1133      C1134   1.390       .  A
C1133      H1144   1.084       .  S
C1134      C1135   1.399       .  A
C1134      H1145   1.084       .  S
C1135      C1136   1.425       .  A
C1135      C1140   1.409       .  A
C1136      C1137   1.412       .  A
C1137      C1138   1.395       .  A
C1137      H1146   1.077       .  S
C1138      C1139   1.402       .  A
C1138      H1147   1.083       .  S
C1139      C1140   1.401       .  A
C1140      H1148   1.084       .  S
C1149      C1150   1.403       .  A
C1149      C1154   1.403       .  A
C1150      C1151   1.396       .  A
C1150      H1163   1.083       .  S
C1151      C1152   1.412       .  A
C1151      H1164   1.077       .  S
C1152      C1158   1.433       .  A
C1152      C1153   1.425       .  A
C1153      C1155   1.400       .  A
C1153      C1154   1.412       .  A
C1154      H1165   1.084       .  S
C1155      C1156   1.392       .  A
C1155      H1166   1.084       .  S
C1156      C1157   1.401       .  A
C1156      H1167   1.084       .  S
C1157      C1158   1.420       .  A
C1157      C1162   1.406       .  A
C1158      C1159   1.418       .  A
C1159      C1160   1.401       .  A
C1159      H1168   1.077       .  S
C1160      C1161   1.398       .  A
C1160      H1169   1.083       .  S
C1161      C1162   1.407       .  A
C1162      H1170   1.084       .  S
C1171      C1172   1.399       .  A
C1171      C1176   1.397       .  A
C1172      C1173   1.397       .  A
C1172      H1185   1.083       .  S
C1173      C1174   1.416       .  A
C1173      H1186   1.077       .  S
C1174      C1180   1.425       .  A
C1174      C1175   1.422       .  A
C1175      C1177   1.397       .  A
C1175      C1176   1.394       .  A
C1177      C1178   1.383       .  A
C1177      H1188   1.084       .  S
C1178      C1179   1.397       .  A
C1178      H1189   1.084       .  S
C1179      C1180   1.422       .  A
C1179      C1184   1.394       .  A
C1180      C1181   1.415       .  A
C1181      C1182   1.396       .  A
C1181      H1190   1.077       .  S
C1182      C1183   1.399       .  A
C1182      H1191   1.083       .  S
C1183      C1184   1.397       .  A
C1184      H1192   1.085       .  S
C1193      C1198   1.406   1_556  A
C1194      C1195   1.396       .  A
C1194      H1207   1.083       .  S
C1195      C1196   1.416       .  A
C1195      H1208   1.077       .  S
C1196      C1202   1.432       .  A
C1196      C1197   1.421       .  A
C1197      C1199   1.402       .  A
C1198      H1209   1.084       .  S
C1199      C1200   1.394       .  A
C1199      H1210   1.084       .  S
C1200      C1201   1.401       .  A
C1200      H1211   1.084       .  S
C1201      C1202   1.424       .  A
C1201      C1206   1.413       .  A
C1202      C1203   1.412       .  A
C1203      C1204   1.394       .  A
C1203      H1212   1.077       .  S
C1204      C1205   1.402       .  A
C1204      H1213   1.083       .  S
C1205      C1206   1.404       .  A
C1206      H1214   1.084       .  S
C1215      C1216   1.399       .  A
C1215      C1220   1.406       .  A
C1216      C1217   1.402       .  A
C1216      H1229   1.083       .  S
C1217      C1218   1.418       .  A
C1217      H1230   1.077       .  S
C1218      C1224   1.435       .  A
C1218      C1219   1.421       .  A
C1219      C1221   1.401       .  A
C1219      C1220   1.406       .  A
C1220      H1231   1.084       .  S
C1221      C1222   1.391       .  A
C1221      H1232   1.084       .  S
C1222      C1223   1.399       .  A
C1222      H1233   1.084       .  S
C1223      C1224   1.424       .  A
C1223      C1228   1.410       .  A
C1224      C1225   1.414       .  A
C1225      C1226   1.398       .  A
C1225      H1234   1.077       .  S
C1226      C1227   1.403       .  A
C1226      H1235   1.083       .  S
C1227      C1228   1.402       .  A
C1228      H1236   1.084       .  S
C1237      C1238   1.400       .  A
C1237      C1242   1.397       .  A
C1238      C1239   1.397       .  A
C1238      H1251   1.083       .  S
C1239      C1240   1.416       .  A
C1239      H1252   1.077       .  S
C1240      C1246   1.426       .  A
C1240      C1241   1.422       .  A
C1241      C1243   1.397       .  A
C1241      C1242   1.395       .  A
C1242      H1253   1.085       .  S
C1243      C1244   1.383       .  A
C1243      H1254   1.084       .  S
C1244      C1245   1.397       .  A
C1244      H1255   1.084       .  S
C1245      C1246   1.422       .  A
C1245      C1250   1.396       .  A
C1246      C1247   1.415       .  A
C1247      C1248   1.396       .  A
C1247      H1256   1.077       .  S
C1248      C1249   1.400       .  A
C1248      H1257   1.083       .  S
C1249      C1250   1.397       .  A
C1250      H1258   1.085       .  S
C1259      C1260   1.400       .  A
C1259      C1264   1.405       .  A
C1260      C1261   1.399       .  A
C1260      H1273   1.083       .  S
C1261      C1262   1.416       .  A
C1261      H1274   1.078       .  S
C1262      C1268   1.433       .  A
C1262      C1263   1.422       .  A
C1263      C1265   1.401   1_556  A
C1263      C1264   1.408       .  A
C1264      H1275   1.085   1_556  S
C1265      C1266   1.392       .  A
C1265      H1276   1.084       .  S
C1266      C1267   1.400   1_554  A
C1266      H1277   1.084       .  S
C1267      C1268   1.424       .  A
C1267      C1272   1.409       .  A
C1268      C1269   1.414       .  A
C1269      C1270   1.397       .  A
C1269      H1278   1.078       .  S
C1270      C1271   1.401       .  A
C1270      H1279   1.083       .  S
C1271      C1272   1.402       .  A
C1272      H1280   1.084   1_556  S
C1281      C1282   1.401       .  A
C1281      C1286   1.406       .  A
C1282      C1283   1.405       .  A
C1282      H1295   1.083       .  S
C1283      C1284   1.419       .  A
C1283      H1296   1.077       .  S
C1284      C1290   1.437   1_455  A
C1284      C1285   1.421       .  A
C1285      C1287   1.401   1_455  A
C1285      C1286   1.407       .  A
C1286      H1297   1.084       .  S
C1287      C1288   1.391       .  A
C1287      H1298   1.084       .  S
C1288      C1289   1.399       .  A
C1288      H1299   1.084       .  S
C1289      C1290   1.425       .  A
C1289      C1294   1.413       .  A
C1290      C1291   1.413   1_655  A
C1291      C1292   1.400   1_455  A
C1291      H1300   1.077       .  S
C1292      C1293   1.405       .  A
C1292      H1301   1.083       .  S
C1293      C1294   1.403       .  A
C1294      H1302   1.084       .  S
C1303      C1304   1.399       .  A
C1303      C1308   1.398       .  A
C1304      C1305   1.392       .  A
C1304      H1317   1.083       .  S
C1305      C1306   1.414       .  A
C1305      H1318   1.079       .  S
C1306      C1312   1.423   1_655  A
C1306      C1307   1.422       .  A
C1307      C1309   1.398       .  A
C1307      C1308   1.397       .  A
C1308      H1319   1.085       .  S
C1309      C1310   1.386   1_655  A
C1309      H1320   1.084       .  S
C1310      C1311   1.398       .  A
C1310      H1321   1.084       .  S
C1311      C1312   1.422       .  A
C1311      C1316   1.397       .  A
C1312      C1313   1.414       .  A
C1313      C1314   1.392       .  A
C1313      H1322   1.078       .  S
C1314      C1315   1.399       .  A
C1314      H1323   1.083       .  S
C1315      C1316   1.398       .  A
C1316      H1324   1.085       .  S
C1325      C1326   1.402       .  A
C1325      C1330   1.399       .  A
C1326      C1327   1.398       .  A
C1326      H1339   1.083       .  S
C1327      C1328   1.414       .  A
C1327      H1340   1.076       .  S
C1328      C1334   1.431       .  A
C1328      C1329   1.423       .  A
C1329      C1331   1.398       .  A
C1329      C1330   1.404       .  A
C1330      H1341   1.084       .  S
C1331      C1332   1.388       .  A
C1331      H1342   1.084       .  S
C1332      C1333   1.399       .  A
C1332      H1343   1.084       .  S
C1333      C1334   1.421       .  A
C1333      C1338   1.401       .  A
C1334      C1335   1.418       .  A
C1335      C1336   1.401       .  A
C1335      H1344   1.076       .  S
C1336      C1337   1.399       .  A
C1336      H1345   1.083       .  S
C1337      C1338   1.402       .  A
C1338      H1346   1.084       .  S
C1347      C1348   1.400       .  A
C1347      C1352   1.407       .  A
C1348      C1349   1.397       .  A
C1348      H1361   1.083       .  S
C1349      C1350   1.416       .  A
C1349      H1362   1.077       .  S
C1350      C1356   1.432       .  A
C1350      C1351   1.421       .  A
C1351      C1353   1.402       .  A
C1351      C1352   1.411       .  A
C1352      H1363   1.084       .  S
C1353      C1354   1.395       .  A
C1353      H1364   1.084       .  S
C1354      C1355   1.401       .  A
C1354      H1365   1.084       .  S
C1355      C1356   1.424       .  A
C1355      C1360   1.413       .  A
C1356      C1357   1.412       .  A
C1357      C1358   1.394       .  A
C1357      H1366   1.077       .  S
C1358      C1359   1.402       .  A
C1358      H1367   1.083       .  S
C1359      C1360   1.405       .  A
C1360      H1368   1.084       .  S
