geometry optimzed in LAMMPS
_audit_creation_date              2020-12-01 
_audit_creation_method            'lammps2cif' 
_symmetry_space_group_name_H-M    'P1' 
_symmetry_Int_Tables_number       1 
_symmetry_cell_setting            triclinic 
loop_ 
_symmetry_equiv_pos_as_xyz 
  x,y,z 
_cell_length_a                    55.39198353 
_cell_length_b                    55.49961536634069 
_cell_length_c                    56.34821166193897 
_cell_angle_alpha                 89.98034330624016 
_cell_angle_beta                  89.97238045192107 
_cell_angle_gamma                 121.2542429669533 
loop_ 
_atom_site_label 
_atom_site_type_symbol 
_atom_site_fract_x 
_atom_site_fract_y 
_atom_site_fract_z 
_atom_site_charge 
O1          O  0.65740913  0.19373756  0.19573575    -0.82100
C2          C  0.55153567  0.12795859  0.24143054     0.97300
O3          O  0.56844430  0.15411947  0.24324928    -0.71200
O4          O  0.61860238  0.16643059  0.25741656    -0.74800
Al5        Al  0.60556914  0.17888480  0.23174094     1.49000
C6          C  0.64178019  0.16724502  0.25734369     0.92500
O7          O  0.62244073  0.11817919  0.21679863    -0.81000
O8          O  0.59155213  0.14265320  0.16593503    -0.74600
Al9        Al  0.63825908  0.15563338  0.20641916     1.90100
O10         O  0.58264306  0.09995727  0.19701316    -0.73600
O11         O  0.55977967  0.15422097  0.19281969    -0.73500
O12         O  0.55387970  0.11396762  0.22494649    -0.79100
O13         O  0.59271321  0.19405492  0.20846977    -0.77300
O14         O  0.60606152  0.15472526  0.21149643    -1.13500
O15         O  0.64260238  0.20917887  0.22470936    -0.72700
C16         C  0.65958412  0.21386334  0.20790427     0.98100
C17         C  0.59994665  0.09698493  0.20948319     0.94400
Al18       Al  0.57461545  0.12975580  0.19631224     1.55600
O19         O  0.65283219  0.16666403  0.23790605    -0.77300
C20         C  0.57053259  0.18034357  0.19633967     0.98600
C21         C  0.61416695  0.14466812  0.15893520     0.93500
O22         O  0.63127754  0.14484328  0.17381972    -0.82600
O23         O  0.82281711  0.33649823  0.46844738    -0.82100
C24         C  0.75992292  0.26021920  0.39557230     0.97300
O25         O  0.76145656  0.25332502  0.41677576    -0.71200
O26         O  0.81212343  0.27406465  0.43504570    -0.74800
Al27       Al  0.78016862  0.27520315  0.44484577     1.49000
C28         C  0.83784334  0.29270844  0.43307990     0.92500
O29         O  0.83519814  0.34561218  0.40275174    -0.81000
O30         O  0.76704858  0.33824000  0.43185978    -0.74600
Al31       Al  0.82620463  0.33869448  0.43545131     1.90100
O32         O  0.79528859  0.34046089  0.39134540    -0.73600
O33         O  0.73360339  0.28383362  0.42568130    -0.73500
O34         O  0.76713060  0.28521578  0.39027337    -0.79100
O35         O  0.74561003  0.27026163  0.45732835    -0.77300
O36         O  0.79159744  0.30844693  0.43077029    -1.13500
O37         O  0.79649793  0.29108722  0.47503001    -0.72700
C38         C  0.81151906  0.31604340  0.48257140     0.98100
C39         C  0.82093079  0.34937419  0.38757013     0.94400
Al40       Al  0.76796128  0.31170178  0.41156228     1.55600
O41         O  0.84585058  0.31849924  0.43463059    -0.77300
C42         C  0.72688199  0.27064322  0.44499621     0.98600
C43         C  0.78828675  0.36099412  0.43887787     0.93500
O44         O  0.81305576  0.36512299  0.43736396    -0.82600
O45         O  0.63695973  0.50427826  0.47474033    -0.82100
C46         C  0.71184729  0.51904284  0.40091545     0.97300
O47         O  0.71931906  0.52820237  0.42196088    -0.71200
O48         O  0.69824720  0.55670771  0.43997223    -0.74800
Al49       Al  0.69805664  0.52450419  0.45044920     1.49000
C50         C  0.67934319  0.56256962  0.43722024     0.92500
O51         O  0.62670187  0.50357282  0.40821833    -0.81000
O52         O  0.63613060  0.44560480  0.44003069    -0.74600
Al53       Al  0.63412523  0.50342531  0.44142271     1.90100
O54         O  0.63169587  0.46844884  0.39912083    -0.73600
O55         O  0.69027875  0.46898945  0.43240279    -0.73500
O56         O  0.68701302  0.49915423  0.39641853    -0.79100
O57         O  0.70398498  0.49605693  0.46346161    -0.77300
O58         O  0.66466355  0.50059426  0.43708876    -1.13500
O59         O  0.68258506  0.52491160  0.48078722    -0.72700
C60         C  0.65777574  0.51493815  0.48860510     0.98100
C61         C  0.62229585  0.48409673  0.39421362     0.94400
Al62       Al  0.66155202  0.47310167  0.41869652     1.55600
O63         O  0.65365095  0.54366744  0.43922114    -0.77300
C64         C  0.70328230  0.47645671  0.45171888     0.98600
C65         C  0.61311770  0.44288042  0.44685647     0.93500
O66         O  0.60833452  0.46285666  0.44468948    -0.82600
O67         O  0.47262824  0.30417868  0.19725667    -0.82100
C68         C  0.52456463  0.40906261  0.24528209     0.97300
O69         O  0.53172078  0.39089606  0.24600308    -0.71200
O70         O  0.48920337  0.34213795  0.25929638    -0.74800
Al71       Al  0.51479999  0.35354714  0.23374777     1.49000
C72         C  0.46508383  0.32006293  0.25939822     0.92500
O73         O  0.43884974  0.34459018  0.21964318    -0.81000
O74         O  0.49671590  0.37265918  0.16935782    -0.74600
Al75       Al  0.45732113  0.32590098  0.20871226     1.90100
O76         O  0.46482589  0.38397599  0.19991616    -0.73600
O77         O  0.54115605  0.40083325  0.19698717    -0.73500
O78         O  0.50810096  0.40825584  0.22940245    -0.79100
O79         O  0.54291624  0.36470249  0.21022087    -0.77300
O80         O  0.49128879  0.35606705  0.21413734    -1.13500
O81         O  0.50334896  0.31567406  0.22597655    -0.72700
C82         C  0.48975336  0.30004699  0.20867733     0.98100
C83         C  0.44306310  0.36785895  0.21203475     0.94400
Al84       Al  0.50175810  0.38873373  0.19994853     1.55600
O85         O  0.45189047  0.31012593  0.24013280    -0.77300
C86         C  0.55441101  0.38808374  0.19961731     0.98600
C87         C  0.47460611  0.35109088  0.16185394     0.93500
O88         O  0.45545085  0.33468758  0.17614985    -0.82600
O89         O  0.45852687  0.14309921  0.46975986    -0.82100
C90         C  0.45018667  0.20690923  0.39634122     0.97300
O91         O  0.44140476  0.20555293  0.41737952    -0.71200
O92         O  0.40900928  0.15442653  0.43272138    -0.74800
Al93       Al  0.44189718  0.18544452  0.44507478     1.49000
C94         C  0.40138897  0.12896606  0.43008669     0.92500
O95         O  0.45884690  0.13277264  0.40357438    -0.81000
O96         O  0.51965553  0.19992133  0.43532199    -0.74600
Al97       Al  0.45917167  0.14051817  0.43653686     1.90100
O98         O  0.49533184  0.17331641  0.39396581    -0.73600
O99         O  0.49977737  0.23282418  0.42889959    -0.73500
O100        O  0.46864228  0.20069896  0.39171970    -0.79100
O101        O  0.47189069  0.21883280  0.45958711    -0.77300
O102        O  0.46457864  0.17495652  0.43206380    -1.13500
O103        O  0.43796543  0.16743094  0.47485635    -0.72700
C104        C  0.44802480  0.15338043  0.48318916     0.98100
C105        C  0.47767089  0.14815126  0.38888526     0.94400
Al106      Al  0.49327951  0.19944707  0.41410719     1.55600
O107        O  0.41856869  0.12077794  0.43361519    -0.77300
C108        C  0.49282222  0.23803524  0.44855486     0.98600
C109        C  0.52063421  0.17887900  0.44243571     0.93500
O110        O  0.49940219  0.15399799  0.44024150    -0.82600
O111        O  0.78141040  0.49475691  0.20121890    -0.82100
C112        C  0.84627369  0.45764077  0.24882415     0.97300
O113        O  0.82041312  0.44870472  0.25160175    -0.71200
O114        O  0.81053064  0.48769063  0.26307885    -0.74800
Al115      Al  0.79589561  0.45986615  0.23934605     1.49000
C116        C  0.81013073  0.51010792  0.26227955     0.92500
O117        O  0.85844797  0.53694651  0.22038142    -0.81000
O118        O  0.82815986  0.47660049  0.17237621    -0.74600
Al119      Al  0.82009473  0.51476158  0.21104896     1.90100
O120        O  0.87324963  0.51283407  0.20065128    -0.73600
O121        O  0.81630083  0.43446293  0.20086198    -0.73500
O122        O  0.85939354  0.47158984  0.23069432    -0.79100
O123        O  0.77860576  0.42945116  0.21820626    -0.77300
O124        O  0.81948405  0.48299390  0.21759433    -1.13500
O125        O  0.76608146  0.46606269  0.23172876    -0.72700
C126        C  0.76122426  0.47662775  0.21384849     0.98100
C127        C  0.87834799  0.53433993  0.21251529     0.94400
Al128      Al  0.84240808  0.47462116  0.20231220     1.55600
O129        O  0.81030760  0.52081154  0.24244258    -0.77300
C130        C  0.79020306  0.41975000  0.20542422     0.98600
C131        C  0.82783515  0.49759276  0.16430598     0.93500
O132        O  0.82981130  0.51636366  0.17823227    -0.82600
O133        O  0.49984025  0.34918511  0.95379977    -0.82100
C134        C  0.44607091  0.24489060  0.90555434     0.97300
O135        O  0.47214374  0.26292162  0.90643844    -0.71200
O136        O  0.48123475  0.31158579  0.89170036    -0.74800
Al137      Al  0.49312724  0.30002727  0.91863355     1.49000
C138        C  0.47861654  0.33283556  0.89085726     0.92500
O139        O  0.42560726  0.30952169  0.92918945    -0.81000
O140        O  0.45089561  0.28024967  0.98063544    -0.74600
Al141      Al  0.46278837  0.32761423  0.94116188     1.90100
O142        O  0.40940277  0.26967636  0.94824511    -0.73600
O143        O  0.46717368  0.25194945  0.95445128    -0.73500
O144        O  0.42908905  0.24578142  0.91998155    -0.79100
O145        O  0.50785080  0.28855357  0.94386041    -0.77300
O146        O  0.46559955  0.29744535  0.93651293    -1.13500
O147        O  0.52039822  0.33777439  0.92659513    -0.72700
C148        C  0.52180335  0.35344755  0.94334930     0.98100
C149        C  0.40511567  0.28648113  0.93645212     0.94400
Al150      Al  0.44103389  0.26462768  0.94987034     1.55600
O151        O  0.47495304  0.34289162  0.90975738    -0.77300
C152        C  0.49383536  0.26469222  0.95368288     0.98600
C153        C  0.45125759  0.30191384  0.98795524     0.93500
O154        O  0.45021838  0.31876597  0.97345797    -0.82600
O155        O  0.64692694  0.51932655  0.67750179    -0.82100
C156        C  0.57781126  0.45080991  0.75264740     0.97300
O157        O  0.56916902  0.45345262  0.73251186    -0.71200
O158        O  0.58727648  0.50541027  0.71961951    -0.74800
Al159      Al  0.58836163  0.47555169  0.70467968     1.49000
C160        C  0.60532358  0.53137899  0.72086460     0.92500
O161        O  0.66131720  0.52916666  0.74348722    -0.81000
O162        O  0.65332045  0.46384642  0.70826899    -0.74600
Al163      Al  0.65208131  0.52188802  0.71056268     1.90100
O164        O  0.65887990  0.48937476  0.75064406    -0.73600
O165        O  0.60021660  0.42923201  0.71677500    -0.73500
O166        O  0.60360116  0.45921541  0.75586817    -0.79100
O167        O  0.58426568  0.44347396  0.68810298    -0.77300
O168        O  0.62292972  0.48685479  0.71549114    -1.13500
O169        O  0.60076106  0.49498818  0.67486420    -0.72700
C170        C  0.62479967  0.50895479  0.66520994     0.98100
C171        C  0.66742294  0.51447277  0.75625415     0.94400
Al172      Al  0.62855446  0.46264002  0.73150575     1.55600
O173        O  0.63072159  0.54050407  0.71494384    -0.77300
C174        C  0.58695843  0.42446239  0.69760737     0.98600
C175        C  0.67567669  0.48560298  0.70147847     0.93500
O176        O  0.67953025  0.51005070  0.70491909    -0.82600
O177        O  0.46019825  0.16056959  0.67260705    -0.82100
C178        C  0.51572372  0.14685071  0.75024470     0.97300
O179        O  0.51538284  0.13813791  0.72935576    -0.71200
O180        O  0.46393989  0.10761328  0.71457369    -0.74800
Al181      Al  0.49592640  0.13839664  0.70099713     1.49000
C182        C  0.43861260  0.10112692  0.71396773     0.92500
O183        O  0.44365932  0.15767092  0.73744857    -0.81000
O184        O  0.51480849  0.21785979  0.70874133    -0.74600
Al185      Al  0.45393482  0.15940486  0.70525263     1.90100
O186        O  0.48371989  0.19391675  0.74914708    -0.73600
O187        O  0.54451088  0.19483096  0.71713355    -0.73500
O188        O  0.50944578  0.16539948  0.75393500    -0.79100
O189        O  0.52994057  0.16687434  0.68633195    -0.77300
O190        O  0.48690990  0.16274235  0.71217945    -1.13500
O191        O  0.47815015  0.13354560  0.67051280    -0.72700
C192        C  0.46789386  0.14669677  0.66054108     0.98100
C193        C  0.45785317  0.17639558  0.75250588     0.94400
Al194      Al  0.51109085  0.19069068  0.73070592     1.55600
O195        O  0.43193091  0.11838560  0.70637291    -0.77300
C196        C  0.54954454  0.18729630  0.69755509     0.98600
C197        C  0.49491457  0.22038298  0.70097411     0.93500
O198        O  0.46939874  0.20014109  0.70264987    -0.82600
O199        O  0.61449293  0.16230732  0.95189322    -0.82100
C200        C  0.71507150  0.20525723  0.89738138     0.97300
O201        O  0.69754419  0.21322063  0.89752634    -0.71200
O202        O  0.64621868  0.17306415  0.88722460    -0.74800
Al203      Al  0.66193977  0.19968506  0.91210461     1.49000
C204        C  0.62301094  0.15000809  0.88860681     0.92500
O205        O  0.64681193  0.12116726  0.92659077    -0.81000
O206        O  0.68322095  0.18025749  0.97540840    -0.74600
Al207      Al  0.63215842  0.14319760  0.93875841     1.90100
O208        O  0.68866862  0.14569085  0.94323255    -0.73600
O209        O  0.71214120  0.22395650  0.94680484    -0.73500
O210        O  0.71439414  0.18872636  0.91316713    -0.79100
O211        O  0.67738349  0.22890264  0.93479229    -0.77300
O212        O  0.66373758  0.17554646  0.93147527    -1.13500
O213        O  0.62600868  0.19201440  0.92242278    -0.72700
C214        C  0.61224305  0.18110246  0.94123059     0.98100
C215        C  0.66993205  0.12363219  0.93279741     0.94400
Al216      Al  0.69681187  0.18382101  0.94375061     1.55600
O217        O  0.61396371  0.13823523  0.90853372    -0.77300
C218        C  0.70107381  0.23887892  0.94469849     0.98600
C219        C  0.66133476  0.15934328  0.98408319     0.93500
O220        O  0.64288236  0.14081324  0.97054219    -0.82600
O221        O  0.81506563  0.33154101  0.67003360    -0.82100
C222        C  0.82590062  0.40073265  0.74717979     0.97300
O223        O  0.83693619  0.40946490  0.72685827    -0.71200
O224        O  0.86677808  0.38896712  0.70925116    -0.74800
Al225      Al  0.83539543  0.39041797  0.69776801     1.49000
C226        C  0.87133783  0.36899143  0.71029264     0.92500
O227        O  0.80991645  0.31509340  0.73555829    -0.81000
O228        O  0.75482512  0.32833721  0.70342311    -0.74600
Al229      Al  0.81207965  0.32557835  0.70293821     1.90100
O230        O  0.77515187  0.32067763  0.74494826    -0.73600
O231        O  0.77825183  0.38169139  0.71312379    -0.73500
O232        O  0.80569778  0.37571738  0.75032671    -0.79100
O233        O  0.80822240  0.39784864  0.68391602    -0.77300
O234        O  0.80982966  0.35609990  0.70889042    -1.13500
O235        O  0.83826422  0.37766203  0.66708832    -0.72700
C236        C  0.82782456  0.35362844  0.65774586     0.98100
C237        C  0.79029464  0.31051701  0.74954084     0.94400
Al238      Al  0.78113562  0.35196250  0.72635510     1.55600
O239        O  0.85185601  0.34394756  0.70661256    -0.77300
C240        C  0.78740770  0.39613218  0.69454609     0.98600
C241        C  0.75236469  0.30604627  0.69513566     0.93500
O242        O  0.77191812  0.30074792  0.69762918    -0.82600
O243        O  0.80277271  0.46655666  0.95390081    -0.82100
C244        C  0.75564831  0.52260420  0.90615884     0.97300
O245        O  0.74657399  0.49650883  0.90586956    -0.71200
O246        O  0.78663632  0.48780045  0.89178455    -0.74800
Al247      Al  0.76174327  0.47481475  0.91796495     1.49000
C248        C  0.81017446  0.48937395  0.89143571     0.92500
O249        O  0.84033628  0.54178345  0.93001929    -0.81000
O250        O  0.78391624  0.51464346  0.98127970    -0.74600
Al251      Al  0.82001928  0.50418816  0.94186275     1.90100
O252        O  0.81692765  0.55704054  0.94998575    -0.73600
O253        O  0.73963913  0.49895820  0.95473696    -0.73500
O254        O  0.77350852  0.53853083  0.92136221    -0.79100
O255        O  0.73439003  0.45910774  0.94231637    -0.77300
O256        O  0.78700091  0.50143012  0.93687201    -1.13500
O257        O  0.77105336  0.44702813  0.92566825    -0.72700
C258        C  0.78494307  0.44501619  0.94248270     0.98100
C259        C  0.83768506  0.56182300  0.93720809     0.94400
Al260      Al  0.77920841  0.52537057  0.95079656     1.55600
O261        O  0.82344538  0.49249785  0.91056511    -0.77300
C262        C  0.72503524  0.47239970  0.95323773     0.98600
C263        C  0.80550149  0.51502444  0.98881665     0.93500
O264        O  0.82361004  0.51618700  0.97438470    -0.82600
O265        O  0.33100558  0.52763122  0.52286098    -0.82100
C266        C  0.22876912  0.47128526  0.57439747     0.97300
O267        O  0.24551720  0.49766639  0.57359189    -0.71200
O268        O  0.29507013  0.50864121  0.58539253    -0.74800
Al269      Al  0.28197269  0.52002404  0.55961023     1.49000
C270        C  0.31664457  0.50663321  0.58559362     0.92500
O271        O  0.29094657  0.45305391  0.54777841    -0.81000
O272        O  0.26136843  0.47931039  0.49646625    -0.74600
Al273      Al  0.30930528  0.49034159  0.53559362     1.90100
O274        O  0.25147619  0.43721213  0.52807283    -0.73600
O275        O  0.23259777  0.49426898  0.52456195    -0.73500
O276        O  0.22798990  0.45563318  0.55777970    -0.79100
O277        O  0.26893592  0.53452448  0.53585104    -0.77300
O278        O  0.27917354  0.49309875  0.54094353    -1.13500
O279        O  0.31937194  0.54804192  0.55013840    -0.72700
C280        C  0.33539987  0.54953423  0.53353257     0.98100
C281        C  0.26779363  0.43269462  0.54039474     0.94400
Al282      Al  0.24604998  0.46861807  0.52767681     1.55600
O283        O  0.32601837  0.50272325  0.56647163    -0.77300
C284        C  0.24497210  0.52076096  0.52628323     0.98600
C285        C  0.28271905  0.47883271  0.48909919     0.93500
O286        O  0.29940512  0.47763972  0.50366960    -0.82600
O287        O  0.11336365  0.47132237  0.80156480    -0.82100
C288        C  0.10842311  0.53350134  0.72690261     0.97300
O289        O  0.09364364  0.52040070  0.74472614    -0.71200
O290        O  0.07421808  0.47775721  0.77453174    -0.74800
Al291      Al  0.10704115  0.51551608  0.77440123     1.49000
C292        C  0.06919120  0.45580133  0.76324966     0.92500
O293        O  0.13847193  0.46505056  0.74026400    -0.81000
O294        O  0.18353761  0.51900173  0.75143602    -0.74600
Al295      Al  0.12632713  0.47256739  0.76981033     1.90100
O296        O  0.14147218  0.49801283  0.71720682    -0.73600
O297        O  0.17292622  0.55911736  0.76037432    -0.73500
O298        O  0.13353619  0.53931032  0.72494747    -0.79100
O299        O  0.13488168  0.55514659  0.77610240    -0.77300
O300        O  0.12972751  0.50527148  0.76146598    -1.13500
O301        O  0.11788656  0.51249889  0.80590229    -0.72700
C302        C  0.11591048  0.49073032  0.81490336     0.98100
C303        C  0.14010871  0.47483000  0.71975008     0.94400
Al304      Al  0.15567278  0.52699038  0.74027697     1.55600
O305        O  0.08902096  0.45191311  0.75772942    -0.77300
C306        C  0.16093108  0.56993415  0.77125236     0.98600
C307        C  0.18542167  0.50789276  0.77043072     0.93500
O308        O  0.16370248  0.49112237  0.78231236    -0.82600
O309        O  0.30160337  0.83877099  0.80398751    -0.82100
C310        C  0.38029640  0.85690510  0.73216242     0.97300
O311        O  0.38662675  0.86438684  0.75364320    -0.71200
O312        O  0.36503746  0.89390231  0.76804092    -0.74800
Al313      Al  0.36339962  0.86173186  0.78051243     1.49000
C314        C  0.34645753  0.90043820  0.76674661     0.92500
O315        O  0.29381423  0.84367829  0.73829708    -0.81000
O316        O  0.30072983  0.78287158  0.76615343    -0.74600
Al317      Al  0.30002037  0.84102500  0.77091562     1.90100
O318        O  0.30029134  0.81024519  0.72593112    -0.73600
O319        O  0.35490956  0.80594935  0.76296728    -0.73500
O320        O  0.35531282  0.83864391  0.72649385    -0.79100
O321        O  0.36630694  0.83204149  0.79484479    -0.77300
O322        O  0.33043594  0.83826865  0.76628759    -1.13500
O323        O  0.34720866  0.86437830  0.81007401    -0.72700
C324        C  0.32215092  0.85167606  0.81785808     0.98100
C325        C  0.29102435  0.82642734  0.72257151     0.94400
Al326      Al  0.32801639  0.81176867  0.74705690     1.55600
O327        O  0.32073558  0.88205547  0.77068575    -0.77300
C328        C  0.36551709  0.81209573  0.78344292     0.98600
C329        C  0.27746928  0.77970071  0.77247073     0.93500
O330        O  0.27328390  0.80017527  0.77181836    -0.82600
O331        O  0.14604774  0.64381494  0.53144009    -0.82100
C332        C  0.18467622  0.74556626  0.58174902     0.97300
O333        O  0.19202253  0.72777701  0.58469425    -0.71200
O334        O  0.15238009  0.67654509  0.59512282    -0.74800
Al335      Al  0.18088913  0.69227509  0.57132031     1.49000
C336        C  0.12993941  0.65289633  0.59326401     0.92500
O337        O  0.10431992  0.67661174  0.55335189    -0.81000
O338        O  0.16417479  0.70944571  0.50436118    -0.74600
Al339      Al  0.12607045  0.66128741  0.54256627     1.90100
O340        O  0.12860080  0.71705221  0.53429172    -0.73600
O341        O  0.20676421  0.73976782  0.53300781    -0.73500
O342        O  0.17118098  0.74511915  0.56361225    -0.79100
O343        O  0.21229061  0.70768562  0.55049131    -0.77300
O344        O  0.15811626  0.69309468  0.54969252    -1.13500
O345        O  0.17442908  0.65645281  0.56218678    -0.72700
C346        C  0.16439647  0.64206879  0.54349974     0.98100
C347        C  0.10710962  0.69952394  0.54617799     0.94400
Al348      Al  0.16690666  0.72513261  0.53495730     1.55600
O349        O  0.11985085  0.64352968  0.57297334    -0.77300
C350        C  0.22188848  0.72953116  0.53791838     0.98600
C351        C  0.14255631  0.68790043  0.49626935     0.93500
O352        O  0.12384801  0.67054987  0.51027952    -0.82600
O353        O  0.48707400  0.67128679  0.80426465    -0.82100
C354        C  0.42425484  0.60190858  0.72842122     0.97300
O355        O  0.42517448  0.59302263  0.74899399    -0.71200
O356        O  0.47597486  0.61218761  0.76485789    -0.74800
Al357      Al  0.44470130  0.61225778  0.77768845     1.49000
C358        C  0.50167672  0.63078651  0.76290347     0.92500
O359        O  0.49804650  0.68519423  0.73897088    -0.81000
O360        O  0.43010154  0.67460128  0.77196107    -0.74600
Al361      Al  0.48998960  0.67615964  0.77157988     1.90100
O362        O  0.45843044  0.68254976  0.73064225    -0.73600
O363        O  0.39736130  0.62130331  0.76206368    -0.73500
O364        O  0.43119070  0.62723952  0.72498102    -0.79100
O365        O  0.41093350  0.60661192  0.79216094    -0.77300
O366        O  0.45552668  0.64639816  0.76627633    -1.13500
O367        O  0.46221646  0.62537632  0.80826633    -0.72700
C368        C  0.47696817  0.64974873  0.81712034     0.98100
C369        C  0.48386595  0.69148013  0.72584848     0.94400
Al370      Al  0.43144535  0.65104384  0.74892892     1.55600
O371        O  0.51010513  0.65620528  0.76787644    -0.77300
C372        C  0.39171282  0.60738372  0.78094747     0.98600
C373        C  0.45111576  0.69719815  0.77942015     0.93500
O374        O  0.47619209  0.70217979  0.77666846    -0.82600
O375        O  0.44908389  0.83299828  0.53156642    -0.82100
C376        C  0.50721624  0.78835177  0.57913964     0.97300
O377        O  0.48117212  0.77942167  0.58035335    -0.71200
O378        O  0.47202302  0.81891250  0.59395421    -0.74800
Al379      Al  0.45863752  0.79332080  0.56824779     1.49000
C380        C  0.47370839  0.84242553  0.59419239     0.92500
O381        O  0.52447064  0.87151065  0.55534793    -0.81000
O382        O  0.49646847  0.81504792  0.50381677    -0.74600
Al383      Al  0.48685465  0.85101649  0.54361854     1.90100
O384        O  0.53980025  0.84855198  0.53475654    -0.73600
O385        O  0.48182961  0.77054261  0.53059106    -0.73500
O386        O  0.52245786  0.80518144  0.56306875    -0.79100
O387        O  0.44248574  0.76489185  0.54483774    -0.77300
O388        O  0.48454116  0.81820270  0.54865952    -1.13500
O389        O  0.43032977  0.80171663  0.56024472    -0.72700
C390        C  0.42769947  0.81457629  0.54288030     0.98100
C391        C  0.54459409  0.86903176  0.54793830     0.94400
Al392      Al  0.50824314  0.81052550  0.53409730     1.55600
O393        O  0.47522152  0.85472749  0.57487835    -0.77300
C394        C  0.45540212  0.75530539  0.53364568     0.98600
C395        C  0.49715955  0.83692110  0.49662206     0.93500
O396        O  0.49906725  0.85506106  0.51125812    -0.82600
O397        O  0.30911878  0.84843581  0.00687322    -0.82100
C398        C  0.24118686  0.77812591  0.08094481     0.97300
O399        O  0.23177146  0.78122733  0.06129360    -0.71200
O400        O  0.24906698  0.83280812  0.04780394    -0.74800
Al401      Al  0.25032026  0.80318963  0.03299194     1.49000
C402        C  0.26708095  0.85861712  0.04970386     0.92500
O403        O  0.32254383  0.85551021  0.07314350    -0.81000
O404        O  0.31559200  0.79243006  0.03421034    -0.74600
Al405      Al  0.31395857  0.84980167  0.03978874     1.90100
O406        O  0.32197009  0.81628227  0.07769230    -0.73600
O407        O  0.26261548  0.75680039  0.04394041    -0.73500
O408        O  0.26693256  0.78594513  0.08340214    -0.79100
O409        O  0.24530231  0.77091276  0.01638692    -0.77300
O410        O  0.28499475  0.81447173  0.04362999    -1.13500
O411        O  0.26303584  0.82285261  0.00289640    -0.72700
C412        C  0.28748264  0.83778125  0.99394891     0.98100
C413        C  0.32908970  0.84048443  0.08504115     0.94400
Al414      Al  0.29127331  0.79006423  0.05846339     1.55600
O415        O  0.29263685  0.86794722  0.04460234    -0.77300
C416        C  0.24759196  0.75168446  0.02583376     0.98600
C417        C  0.33783776  0.81479092  0.02804662     0.93500
O418        O  0.34168009  0.83881064  0.03339340    -0.82600
O419        O  0.47413862  0.80764048  0.28867783    -0.82100
C420        C  0.42254651  0.85727149  0.23794434     0.97300
O421        O  0.41431190  0.83144402  0.23919451    -0.71200
O422        O  0.45604534  0.82518058  0.22543199    -0.74800
Al423      Al  0.43168086  0.81221148  0.25205214     1.49000
C424        C  0.48038492  0.82853449  0.22514652     0.92500
O425        O  0.50943056  0.88116578  0.26259050    -0.81000
O426        O  0.45384311  0.85569501  0.31403220    -0.74600
Al427      Al  0.49013139  0.84436721  0.27528169     1.90100
O428        O  0.48492871  0.89655993  0.28067290    -0.73600
O429        O  0.40863869  0.83653771  0.28776530    -0.73500
O430        O  0.44040526  0.87467843  0.25250999    -0.79100
O431        O  0.40533499  0.79690361  0.27708564    -0.77300
O432        O  0.45658453  0.84029717  0.27003713    -1.13500
O433        O  0.44283873  0.78607468  0.26054640    -0.72700
C434        C  0.45674802  0.78538900  0.27795388     0.98100
C435        C  0.50631969  0.90116663  0.26888308     0.94400
Al436      Al  0.44775876  0.86405221  0.28280052     1.55600
O437        O  0.49370895  0.83193204  0.24431864    -0.77300
C438        C  0.39527611  0.80989704  0.28747236     0.98600
C439        C  0.47557062  0.85624100  0.32153402     0.93500
O440        O  0.49371141  0.85757803  0.30713758    -0.82600
O441        O  0.17107544  0.68040573  0.28563132    -0.82100
C442        C  0.10640492  0.57480793  0.24041259     0.97300
O443        O  0.13299226  0.59003477  0.24082423    -0.71200
O444        O  0.14672778  0.63979464  0.22487166    -0.74800
Al445      Al  0.15759962  0.62762462  0.25189818     1.49000
C446        C  0.14736893  0.66277352  0.22354495     0.92500
O447        O  0.09661484  0.64578184  0.26253535    -0.81000
O448        O  0.11855695  0.61489733  0.31551377    -0.74600
Al449      Al  0.13361428  0.66132688  0.27395842     1.90100
O450        O  0.07719637  0.60687844  0.28347191    -0.73600
O451        O  0.12973485  0.58175938  0.28959649    -0.73500
O452        O  0.09157792  0.57812106  0.25560586    -0.79100
O453        O  0.17100922  0.61553992  0.27703233    -0.77300
O454        O  0.13250022  0.62898696  0.27031472    -1.13500
O455        O  0.18795994  0.66476408  0.25865902    -0.72700
C456        C  0.19181935  0.68208338  0.27488128     0.98100
C457        C  0.07495806  0.62388513  0.27004521     0.94400
Al458      Al  0.10630539  0.59791055  0.28502560     1.55600
O459        O  0.14581416  0.67462008  0.24218652    -0.77300
C460        C  0.15615581  0.59243431  0.28765959     0.98600
C461        C  0.12172301  0.63825147  0.32180504     0.93500
O462        O  0.12198236  0.65505670  0.30649835    -0.82600
O463        O  0.12077682  0.48715613  0.00665609    -0.82100
C464        C  0.18489597  0.48183699  0.08189228     0.97300
O465        O  0.18469770  0.47397993  0.06067275    -0.71200
O466        O  0.13506121  0.43983843  0.04251583    -0.74800
Al467      Al  0.16552926  0.47441596  0.03219112     1.49000
C468        C  0.10912480  0.43071896  0.04456631     0.92500
O469        O  0.10806093  0.48632735  0.07310879    -0.81000
O470        O  0.17534623  0.54935025  0.04288448    -0.74600
Al471      Al  0.11741318  0.48737404  0.04010694     1.90100
O472        O  0.14719102  0.52417997  0.08322438    -0.73600
O473        O  0.21048946  0.53199240  0.05089487    -0.73500
O474        O  0.17675670  0.49884558  0.08664345    -0.79100
O475        O  0.19844961  0.50612962  0.01919639    -0.77300
O476        O  0.15247335  0.49475893  0.04540340    -1.13500
O477        O  0.14895924  0.47098912  0.00178226    -0.72700
C478        C  0.13301708  0.47868703  0.99319682     0.98100
C479        C  0.12156586  0.50663592  0.08715147     0.94400
Al480      Al  0.17529571  0.52344276  0.06424108     1.55600
O481        O  0.09972122  0.44706594  0.04243568    -0.77300
C482        C  0.21692337  0.52649569  0.03110141     0.98600
C483        C  0.15375221  0.54892729  0.03510460     0.93500
O484        O  0.12924019  0.52695737  0.03658197    -0.82600
O485        O  0.48307856  0.66979240  0.00431911    -0.82100
C486        C  0.49107731  0.74089248  0.07872931     0.97300
O487        O  0.50251047  0.74974588  0.05848653    -0.71200
O488        O  0.53346733  0.72989816  0.04350956    -0.74800
Al489      Al  0.50243947  0.72984631  0.03000110     1.49000
C490        C  0.53954190  0.71107185  0.04506255     0.92500
O491        O  0.47982671  0.65814482  0.06994107    -0.81000
O492        O  0.42266601  0.66638850  0.03478377    -0.74600
Al493      Al  0.48105276  0.66588718  0.03710511     1.90100
O494        O  0.44261027  0.66056599  0.07739836    -0.73600
O495        O  0.44451176  0.71990845  0.04313700    -0.73500
O496        O  0.47114212  0.71569659  0.08154081    -0.79100
O497        O  0.47523611  0.73562420  0.01444195    -0.77300
O498        O  0.47735690  0.69575977  0.04145202    -1.13500
O499        O  0.50646937  0.71585945  0.99990691    -0.72700
C500        C  0.49554356  0.69126617  0.99136705     0.98100
C501        C  0.45904684  0.65214293  0.08294600     0.94400
Al502      Al  0.44784616  0.69109361  0.05777745     1.55600
O503        O  0.52128301  0.68577886  0.04040210    -0.77300
C504        C  0.45400964  0.73379645  0.02429976     0.98600
C505        C  0.42067025  0.64352088  0.02885313     0.93500
O506        O  0.44078946  0.63927151  0.03259107    -0.82600
O507        O  0.28253428  0.49808506  0.28086099    -0.82100
C508        C  0.38602515  0.55013789  0.23076485     0.97300
O509        O  0.36827513  0.55789043  0.23104368    -0.71200
O510        O  0.31868059  0.51663631  0.21827578    -0.74800
Al511      Al  0.33147208  0.54160377  0.24436910     1.49000
C512        C  0.29720607  0.49213579  0.21815823     0.92500
O513        O  0.32260412  0.46503320  0.25610488    -0.81000
O514        O  0.35173813  0.52183940  0.30734200    -0.74600
Al515      Al  0.30419360  0.48331282  0.26828864     1.90100
O516        O  0.36211800  0.49041010  0.27558647    -0.73600
O517        O  0.38010517  0.56650749  0.27997891    -0.73500
O518        O  0.38574549  0.53368566  0.24637882    -0.79100
O519        O  0.34419224  0.56961467  0.26834406    -0.77300
O520        O  0.33424534  0.51741314  0.26298597    -1.13500
O521        O  0.29394281  0.53042517  0.25351367    -0.72700
C522        C  0.27802314  0.51535603  0.27018306     0.98100
C523        C  0.34602473  0.46904496  0.26313531     0.94400
Al524      Al  0.36720014  0.52723949  0.27634384     1.55600
O525        O  0.28784357  0.47861199  0.23735210    -0.77300
C526        C  0.36793123  0.58038522  0.27838695     0.98600
C527        C  0.33041069  0.49945393  0.31488220     0.93500
O528        O  0.31376384  0.48064684  0.30049447    -0.82600
O529        O  0.97802672  0.17594649  0.34322552    -0.82100
C530        C  0.90345095  0.11206369  0.41722865     0.97300
O531        O  0.89586219  0.11449421  0.39653007    -0.71200
O532        O  0.91688920  0.16625037  0.38145202    -0.74800
Al533      Al  0.91730109  0.13543387  0.36866136     1.49000
C534        C  0.93542216  0.19200594  0.38187876     0.92500
O535        O  0.98870520  0.18855451  0.40904549    -0.81000
O536        O  0.98050898  0.12112577  0.37757188    -0.74600
Al537      Al  0.98128367  0.18009710  0.37622556     1.90100
O538        O  0.98370788  0.14820859  0.41917606    -0.73600
O539        O  0.92637497  0.08804866  0.38396651    -0.73500
O540        O  0.92876047  0.11956991  0.42153901    -0.79100
O541        O  0.91227789  0.10246032  0.35395362    -0.77300
O542        O  0.95098909  0.14576161  0.38122751    -1.13500
O543        O  0.93211984  0.15385359  0.33846814    -0.72700
C544        C  0.95683882  0.16629816  0.32988134     0.98100
C545        C  0.99219967  0.17358013  0.42374605     0.94400
Al546      Al  0.95462204  0.12140777  0.39897512     1.55600
O547        O  0.96100773  0.20011687  0.37761148    -0.77300
C548        C  0.91276735  0.08305531  0.36495709     0.98600
C549        C  0.00354600  0.14232788  0.37107232     0.93500
O550        O  0.00799644  0.16707821  0.37362478    -0.82600
O551        O  0.14921554  0.14231965  0.61940067    -0.82100
C552        C  0.09694231  0.18908902  0.56592503     0.97300
O553        O  0.09053361  0.16367505  0.56564870    -0.71200
O554        O  0.13161076  0.15585166  0.55523496    -0.74800
Al555      Al  0.10578262  0.14376328  0.58082822     1.49000
C556        C  0.15581058  0.15908087  0.55609474     0.92500
O557        O  0.18086338  0.21492702  0.59137233    -0.81000
O558        O  0.12432708  0.18571343  0.64331545    -0.74600
Al559      Al  0.16365830  0.17842664  0.60532200     1.90100
O560        O  0.15531370  0.22802120  0.61090541    -0.73600
O561        O  0.07988684  0.16675691  0.61595911    -0.73500
O562        O  0.11159744  0.20558974  0.58239811    -0.79100
O563        O  0.07645434  0.12772889  0.60387386    -0.77300
O564        O  0.12922722  0.17212858  0.59938151    -1.13500
O565        O  0.11675952  0.11837186  0.59225851    -0.72700
C566        C  0.13176961  0.11929792  0.60954279     0.98100
C567        C  0.17613117  0.23393728  0.59770699     0.94400
Al568      Al  0.11871177  0.19464788  0.61221306     1.55600
O569        O  0.16899438  0.16514344  0.57550412    -0.77300
C570        C  0.06575125  0.14036146  0.61380667     0.98600
C571        C  0.14724927  0.18929390  0.65120879     0.93500
O572        O  0.16645198  0.19269470  0.63697343    -0.82600
O573        O  0.14146495  0.98829375  0.33856485    -0.82100
C574        C  0.16129907  0.05804307  0.41726232     0.97300
O575        O  0.16948594  0.06690136  0.39621681    -0.71200
O576        O  0.19722145  0.04702621  0.37483238    -0.74800
Al577      Al  0.16496224  0.04768270  0.36634579     1.49000
C578        C  0.20298176  0.02795849  0.37392053     0.92500
O579        O  0.14588140  0.97467862  0.40315981    -0.81000
O580        O  0.08605061  0.98605909  0.37688178    -0.74600
Al581      Al  0.14327002  0.98347934  0.37106542     1.90100
O582        O  0.11021577  0.97754927  0.41554058    -0.73600
O583        O  0.11051073  0.03965170  0.38748733    -0.73500
O584        O  0.14160646  0.03291817  0.42109350    -0.79100
O585        O  0.13622283  0.05423521  0.35553952    -0.77300
O586        O  0.14117472  0.01365361  0.37843580    -1.13500
O587        O  0.16474728  0.03431923  0.33483030    -0.72700
C588        C  0.15297135  0.00996157  0.32574783     0.98100
C589        C  0.12689569  0.96875192  0.41819109     0.94400
Al590      Al  0.11446139  0.00940432  0.39849747     1.55600
O591        O  0.18383333  0.00257458  0.37073552    -0.77300
C592        C  0.11743515  0.05357323  0.36851125     0.98600
C593        C  0.08268271  0.96340266  0.36855636     0.93500
O594        O  0.10235811  0.95799667  0.36943925    -0.82600
O595        O  0.83787781  0.01496672  0.62232171    -0.82100
C596        C  0.77362989  0.90954662  0.57694802     0.97300
O597        O  0.80017924  0.92540829  0.57613721    -0.71200
O598        O  0.81386295  0.97534899  0.56103910    -0.74800
Al599      Al  0.82507595  0.96277124  0.58764197     1.49000
C600        C  0.81389818  0.99802668  0.56003527     0.92500
O601        O  0.76273431  0.97876222  0.59932912    -0.81000
O602        O  0.78775023  0.94955296  0.65175935    -0.74600
Al603      Al  0.80014190  0.99528962  0.61065174     1.90100
O604        O  0.74478682  0.94037874  0.62083436    -0.73600
O605        O  0.79859653  0.91666386  0.62573411    -0.73500
O606        O  0.75930259  0.91213032  0.59300781    -0.79100
O607        O  0.83928411  0.95025740  0.61209161    -0.77300
O608        O  0.79997731  0.96344039  0.60662074    -1.13500
O609        O  0.85524833  0.00002900  0.59489725    -0.72700
C610        C  0.85867380  0.01706462  0.61125188     0.98100
C611        C  0.74150624  0.95677970  0.60741130     0.94400
Al612      Al  0.77464674  0.93224181  0.62174623     1.55600
O613        O  0.81216843  0.00938793  0.57891541    -0.77300
C614        C  0.82496287  0.92752131  0.62336776     0.98600
C615        C  0.78917703  0.97200089  0.65829315     0.93500
O616        O  0.78826837  0.98842651  0.64325143    -0.82600
O617        O  0.78428641  0.82133416  0.34683807    -0.82100
C618        C  0.85146326  0.81279413  0.41787398     0.97300
O619        O  0.84807649  0.80248162  0.39712059    -0.71200
O620        O  0.79560646  0.76996763  0.38330270    -0.74800
Al621      Al  0.82599039  0.80233880  0.36997780     1.49000
C622        C  0.76994208  0.76219536  0.38430203     0.92500
O623        O  0.77492305  0.81788885  0.41330023    -0.81000
O624        O  0.84033788  0.88022382  0.37990337    -0.74600
Al625      Al  0.78168528  0.81985471  0.38009321     1.90100
O626        O  0.81553918  0.85523844  0.42221836    -0.73600
O627        O  0.87430999  0.86118913  0.38377083    -0.73500
O628        O  0.84499869  0.83098816  0.42242051    -0.79100
O629        O  0.85841858  0.83140472  0.35432819    -0.77300
O630        O  0.81635820  0.82533906  0.38346566    -1.13500
O631        O  0.80592072  0.79810686  0.34058642    -0.72700
C632        C  0.79279870  0.80963938  0.33284669     0.98100
C633        C  0.79047714  0.83702577  0.42773595     0.94400
Al634      Al  0.84160780  0.85442286  0.40055637     1.55600
O635        O  0.76187365  0.77937478  0.38073188    -0.77300
C636        C  0.87827551  0.85269392  0.36431520     0.98600
C637        C  0.81843175  0.88083346  0.37530091     0.93500
O638        O  0.79403828  0.85948997  0.37864368    -0.82600
O639        O  0.95280934  0.83423314  0.62027939    -0.82100
C640        C  0.05749630  0.88588116  0.57151330     0.97300
O641        O  0.04051278  0.89461901  0.57231197    -0.71200
O642        O  0.99000625  0.85583486  0.55802088    -0.74800
Al643      Al  0.00354120  0.87900362  0.58540570     1.49000
C644        C  0.96779248  0.83186704  0.55711473     0.92500
O645        O  0.99125274  0.80056121  0.59272560    -0.81000
O646        O  0.02038254  0.85347645  0.64721096    -0.74600
Al647      Al  0.97368449  0.81909380  0.60638709     1.90100
O648        O  0.03005550  0.82300936  0.61364992    -0.73600
O649        O  0.05158731  0.89990485  0.62149216    -0.73500
O650        O  0.05598122  0.86809550  0.58640191    -0.79100
O651        O  0.01692813  0.90538435  0.61057348    -0.77300
O652        O  0.00466397  0.85290320  0.60262975    -1.13500
O653        O  0.96639480  0.86888132  0.59481150    -0.72700
C654        C  0.94953753  0.85290268  0.61065552     0.98100
C655        C  0.01395006  0.80294122  0.59998780     0.94400
Al656      Al  0.03684524  0.86044281  0.61624096     1.55600
O657        O  0.95806258  0.81727570  0.57573561    -0.77300
C658        C  0.04079591  0.91506419  0.62009051     0.98600
C659        C  0.99823090  0.83090033  0.65348633     0.93500
O660        O  0.98217400  0.81346469  0.63801749    -0.82600
O661        O  0.99192670  0.85409568  0.85961269    -0.82100
C662        C  0.88794865  0.80338644  0.90996853     0.97300
O663        O  0.90683497  0.82912872  0.90882396    -0.71200
O664        O  0.95512497  0.83607981  0.92266904    -0.74800
Al665      Al  0.94406395  0.84870409  0.89605179     1.49000
C666        C  0.97687128  0.83424720  0.92296857     0.92500
O667        O  0.95113530  0.78049074  0.88607847    -0.81000
O668        O  0.92203792  0.80483635  0.83365046    -0.74600
Al669      Al  0.96981565  0.81716047  0.87315070     1.90100
O670        O  0.91052852  0.76422053  0.86792169    -0.73600
O671        O  0.89588544  0.82444699  0.85993011    -0.73500
O672        O  0.88783415  0.78603441  0.89537891    -0.79100
O673        O  0.93357593  0.86398790  0.87113408    -0.77300
O674        O  0.94016615  0.82079464  0.87807364    -1.13500
O675        O  0.98222823  0.87509250  0.88767333    -0.72700
C676        C  0.99751407  0.87621357  0.87062654     0.98100
C677        C  0.92738906  0.76007925  0.87992240     0.94400
Al678      Al  0.90678109  0.79675976  0.86512726     1.55600
O679        O  0.98631455  0.83019582  0.90390476    -0.77300
C680        C  0.90986987  0.85114931  0.86104108     0.98600
C681        C  0.94329237  0.80398144  0.82667250     0.93500
O682        O  0.95991722  0.80334172  0.84158648    -0.82600
O683        O  0.15645106  0.00193686  0.13800759    -0.82100
C684        C  0.09497636  0.93683322  0.05908513     0.97300
O685        O  0.09405559  0.92746413  0.07980847    -0.71200
O686        O  0.14362040  0.94381815  0.09670844    -0.74800
Al687      Al  0.11296547  0.94529857  0.10891449     1.49000
C688        C  0.16964150  0.96169607  0.09542398     0.92500
O689        O  0.17195229  0.02013370  0.07331786    -0.81000
O690        O  0.10305153  0.01038984  0.10246912    -0.74600
Al691      Al  0.16113089  0.00868495  0.10534268     1.90100
O692        O  0.13331050  0.01817294  0.06260147    -0.73600
O693        O  0.06883059  0.95769562  0.09158625    -0.73500
O694        O  0.10415347  0.96275374  0.05572657    -0.79100
O695        O  0.07964222  0.94190811  0.12263486    -0.77300
O696        O  0.12638338  0.98024776  0.09816571    -1.13500
O697        O  0.12910462  0.95603150  0.13980204    -0.72700
C698        C  0.14434540  0.97951149  0.14978004     0.98100
C699        C  0.15910400  0.02733942  0.05949576     0.94400
Al700      Al  0.10439508  0.98674469  0.07968188     1.55600
O701        O  0.17923551  0.98711921  0.10123042    -0.77300
C702        C  0.06175499  0.94457109  0.11098422     0.98600
C703        C  0.12381291  0.03152480  0.11205391     0.93500
O704        O  0.14860899  0.03545093  0.11093564    -0.82600
O705        O  0.11519498  0.16044327  0.85735838    -0.82100
C706        C  0.16771601  0.11290092  0.90968055     0.97300
O707        O  0.14135540  0.10295503  0.90846900    -0.71200
O708        O  0.12795419  0.14008210  0.92048026    -0.74800
Al709      Al  0.11938823  0.11651593  0.89352950     1.49000
C710        C  0.13094835  0.16417334  0.92093970     0.92500
O711        O  0.18685566  0.19544819  0.88689934    -0.81000
O712        O  0.16473232  0.14225044  0.83292025    -0.74600
Al713      Al  0.15098601  0.17629974  0.87214886     1.90100
O714        O  0.20455419  0.17453270  0.86658414    -0.73600
O715        O  0.14837238  0.09646911  0.85921898    -0.73500
O716        O  0.18436801  0.13031696  0.89448547    -0.79100
O717        O  0.10713449  0.08959878  0.86894653    -0.77300
O718        O  0.14772775  0.14295970  0.87662129    -1.13500
O719        O  0.09187850  0.12461545  0.88173193    -0.72700
C720        C  0.09222505  0.14028919  0.86523720     0.98100
C721        C  0.20778224  0.19405098  0.88023054     0.94400
Al722      Al  0.17339108  0.13643263  0.86419121     1.55600
O723        O  0.13605707  0.17814862  0.90205898    -0.77300
C724        C  0.12180214  0.08074222  0.85982777     0.98600
C725        C  0.16598041  0.16453519  0.82597443     0.93500
O726        O  0.16652917  0.18189335  0.84085009    -0.82600
O727        O  0.81688102  0.97700776  0.87851393    -0.82100
C728        C  0.85639319  0.08227248  0.91828542     0.97300
O729        O  0.85114613  0.05832152  0.92500883    -0.71200
O730        O  0.82969082  0.00371462  0.92638326    -0.74800
Al731      Al  0.85519238  0.03293948  0.90569623     1.49000
C732        C  0.80331142  0.98971290  0.92840918     0.92500
O733        O  0.77441408  0.01384045  0.87996157    -0.81000
O734        O  0.82173230  0.04557719  0.83985848    -0.74600
Al735      Al  0.79826729  0.99828766  0.87961325     1.90100
O736        O  0.80373160  0.05977672  0.87985529    -0.73600
O737        O  0.87322942  0.07025171  0.85732645    -0.73500
O738        O  0.85551077  0.08748070  0.89652627    -0.79100
O739        O  0.88795164  0.06277439  0.89084381    -0.77300
O740        O  0.83018393  0.03123586  0.88486212    -1.13500
O741        O  0.86110953  0.00758709  0.88800309    -0.72700
C742        C  0.84256882  0.98388432  0.87977798     0.98100
C743        C  0.77916831  0.03860399  0.88215096     0.94400
Al744      Al  0.83769214  0.06287997  0.86965744     1.55600
O745        O  0.78813255  0.98975080  0.91196094    -0.77300
C746        C  0.89318120  0.07370263  0.87049206     0.98600
C747        C  0.81021537  0.02067203  0.83231674     0.93500
O748        O  0.80240526  0.00061722  0.84658131    -0.82600
O749        O  0.97301057  0.17122004  0.14002999    -0.82100
C750        C  0.04558850  0.18689020  0.06389631     0.97300
O751        O  0.05382967  0.19526696  0.08497482    -0.71200
O752        O  0.03437905  0.22529569  0.10253925    -0.74800
Al753      Al  0.03315763  0.19291069  0.11365209     1.49000
C754        C  0.01582842  0.23183740  0.10184817     0.92500
O755        O  0.96231946  0.17636018  0.07486500    -0.81000
O756        O  0.96859615  0.11458529  0.10260192    -0.74600
Al757      Al  0.96955003  0.17344768  0.10719365     1.90100
O758        O  0.96535719  0.14085373  0.06250710    -0.73600
O759        O  0.02250880  0.13666770  0.09515028    -0.73500
O760        O  0.02020029  0.16842789  0.05962392    -0.79100
O761        O  0.03714035  0.16339604  0.12656395    -0.77300
O762        O  0.99915022  0.16977542  0.10099340    -1.13500
O763        O  0.01900093  0.19490518  0.14445441    -0.72700
C764        C  0.99438099  0.18255981  0.15322947     0.98100
C765        C  0.95848369  0.15890090  0.05898047     0.94400
Al766      Al  0.99450898  0.14245597  0.08167905     1.55600
O767        O  0.99038971  0.21396953  0.10676645    -0.77300
C768        C  0.03542557  0.14341187  0.11463105     0.98600
C769        C  0.94620174  0.11256797  0.11020539     0.93500
O770        O  0.94232746  0.13314455  0.10872610    -0.82600
O771        O  0.79417485  0.81690049  0.14268533    -0.82100
C772        C  0.77921634  0.87054468  0.06384330     0.97300
O773        O  0.77062832  0.87049784  0.08481899    -0.71200
O774        O  0.74087586  0.82072885  0.10455698    -0.74800
Al775      Al  0.77322984  0.85391246  0.11442719     1.49000
C776        C  0.73469347  0.79551982  0.10466254     0.92500
O777        O  0.79287851  0.80037094  0.07718265    -0.81000
O778        O  0.85200693  0.87278735  0.10481583    -0.74600
Al779      Al  0.79395569  0.81127764  0.10967538     1.90100
O780        O  0.82840600  0.84063873  0.06567847    -0.73600
O781        O  0.82846250  0.90170646  0.09464159    -0.73500
O782        O  0.79773968  0.86413829  0.06013536    -0.79100
O783        O  0.80258954  0.88923648  0.12655834    -0.77300
O784        O  0.79682673  0.84403228  0.10256897    -1.13500
O785        O  0.77118530  0.83909926  0.14571583    -0.72700
C786        C  0.78234331  0.82658330  0.15524212     0.98100
C787        C  0.81221203  0.81463409  0.06247529     0.94400
Al788      Al  0.82414579  0.86763236  0.08304795     1.55600
O789        O  0.75325755  0.78918476  0.10830824    -0.77300
C790        C  0.82220770  0.90802107  0.11414244     0.98600
C791        C  0.85507902  0.85345981  0.11318982     0.93500
O792        O  0.83492791  0.82779144  0.11262732    -0.82600
C793        C  0.91241047  0.04217418  0.14075935    -0.27900
C794        C  0.88597382  0.02787039  0.12952348     0.01700
C795        C  0.87767325  0.04321350  0.11526002     0.29800
C796        C  0.89672412  0.07188131  0.11071819    -0.19700
C797        C  0.92418290  0.08527236  0.11995214    -0.29100
C798        C  0.93150511  0.07064702  0.13599315     0.43900
C799        C  0.86999200  0.99663231  0.12885560     0.05000
O800        O  0.85193163  0.02988105  0.10411571    -0.57600
H801        H  0.89083875  0.08297075  0.09841044     0.18000
O802        O  0.95790712  0.08357090  0.14597550    -0.64300
H803        H  0.91898230  0.03071479  0.15194669     0.16400
C804        C  0.88281367  0.98272033  0.11891018     0.28700
C805        C  0.86715346  0.95366248  0.11546904    -0.25200
C806        C  0.83849230  0.93779013  0.12166205    -0.24500
C807        C  0.82577070  0.95136669  0.13246879     0.40100
C808        C  0.84150940  0.98073255  0.13584591    -0.26900
O809        O  0.91037675  0.99755910  0.11138199    -0.58800
H810        H  0.87729658  0.94356930  0.10715249     0.15800
O811        O  0.79758995  0.93657701  0.13806604    -0.60300
H812        H  0.83131560  0.99120332  0.14330257     0.14200
H813        H  0.95675088  0.09359346  0.16009976     0.46100
H814        H  0.90971450  0.00405471  0.09512609     0.41400
H815        H  0.79673826  0.93087395  0.15486636     0.44900
H816        H  0.85524334  0.02362681  0.08860884     0.36400
C817        C  0.75605275  0.91272490  0.02775194    -0.27900
C818        C  0.76554727  0.91091529  0.00514182     0.01700
C819        C  0.77488272  0.89204418  0.00127070     0.29800
C820        C  0.77697230  0.87711487  0.02033130    -0.19700
C821        C  0.76980350  0.88066329  0.04349544    -0.29100
C822        C  0.75772245  0.89744750  0.04684245     0.43900
C823        C  0.77114454  0.93242888  0.98702974     0.05000
O824        O  0.78491482  0.89038694  0.97944674    -0.57600
H825        H  0.78598046  0.86412075  0.01716378     0.18000
O826        O  0.74995549  0.90123473  0.06898424    -0.64300
H827        H  0.74891537  0.92730280  0.03088710     0.16400
C828        C  0.75595732  0.92552780  0.96562312     0.28700
C829        C  0.76548949  0.94523346  0.94707166    -0.25200
C830        C  0.79039370  0.97171597  0.94953788    -0.24500
C831        C  0.80446889  0.97911131  0.97155549     0.40100
C832        C  0.79475300  0.95952864  0.99009316    -0.26900
O833        O  0.73279915  0.89912316  0.96222064    -0.58800
H834        H  0.75440928  0.93914047  0.93025768     0.15800
O835        O  0.82849510  0.00495962  0.97476559    -0.60300
H836        H  0.80662534  0.96500900  0.00652064     0.14200
H837        H  0.73018584  0.88545556  0.07102752     0.46100
H838        H  0.71655224  0.90031428  0.96804554     0.41400
H839        H  0.82275578  0.01549191  0.98522888     0.44900
H840        H  0.76837118  0.87498743  0.97104513     0.36400
C841        C  0.93903003  0.14877988  0.99405136    -0.27900
C842        C  0.91620320  0.15302753  0.99377068     0.01700
C843        C  0.90928059  0.16225445  0.01452509     0.29800
C844        C  0.92422850  0.16563430  0.03554323    -0.19700
C845        C  0.94550200  0.15902600  0.03621969    -0.29100
C846        C  0.95327102  0.15116124  0.01512458     0.43900
C847        C  0.89652826  0.14136004  0.97355058     0.05000
O848        O  0.88683371  0.16623199  0.01477688    -0.57600
H849        H  0.91806922  0.17178389  0.05161728     0.18000
O850        O  0.97434693  0.14512051  0.01500603    -0.64300
H851        H  0.94435666  0.14129710  0.97829216     0.16400
C852        C  0.90618987  0.14915222  0.95005567     0.28700
C853        C  0.89091191  0.13097359  0.93135390    -0.25200
C854        C  0.86637852  0.10486548  0.93601850    -0.24500
C855        C  0.85512518  0.09876104  0.95910146     0.40100
C856        C  0.87003628  0.11718078  0.97766680    -0.26900
O857        O  0.93187039  0.17291898  0.94550168    -0.58800
H858        H  0.89971449  0.13599816  0.91360326     0.15800
O859        O  0.83045427  0.07396573  0.96387852    -0.60300
H860        H  0.86232843  0.11092842  0.99564534     0.14200
H861        H  0.96455339  0.12427481  0.01584233     0.46100
H862        H  0.92863637  0.18882007  0.94716447     0.41400
H863        H  0.83632496  0.06158003  0.97124553     0.44900
H864        H  0.89467657  0.18596403  0.00948791     0.36400
C865        C  0.07333236  0.19619433  0.00158418    -0.27900
C866        C  0.09946043  0.19864475  0.00566391     0.01700
C867        C  0.11013217  0.20295022  0.02892987     0.29800
C868        C  0.09339399  0.20206237  0.04801648    -0.19700
C869        C  0.06590332  0.19641361  0.04404655    -0.29100
C870        C  0.05664550  0.19521840  0.02052679     0.43900
C871        C  0.11316039  0.19305383  0.98570041     0.05000
O872        O  0.13654104  0.20736399  0.03309848    -0.57600
H873        H  0.10109048  0.20359839  0.06595738     0.18000
O874        O  0.03056332  0.19132807  0.01587036    -0.64300
H875        H  0.06504735  0.19324417  0.98370276     0.16400
C876        C  0.11456248  0.16844997  0.98550395     0.28700
C877        C  0.12160136  0.15994448  0.96455960    -0.25200
C878        C  0.12726628  0.17564359  0.94353630    -0.24500
C879        C  0.12739310  0.20119882  0.94422396     0.40100
C880        C  0.12031496  0.20961399  0.96517852    -0.26900
O881        O  0.10646576  0.15120095  0.00504238    -0.58800
H882        H  0.12141003  0.14032421  0.96459662     0.15800
O883        O  0.13340781  0.21769654  0.92438304    -0.60300
H884        H  0.11912070  0.22849641  0.96511833     0.14200
H885        H  0.03326777  0.21043091  0.01647779     0.46100
H886        H  0.12412417  0.15325781  0.01141972     0.41400
H887        H  0.11485118  0.21138255  0.91689243     0.44900
H888        H  0.13344766  0.19050738  0.04188325     0.36400
C889        C  0.01592961  0.10207769  0.84619136    -0.27900
C890        C  0.01025641  0.12392149  0.84691033     0.01700
C891        C  0.03275704  0.15188821  0.84990941     0.29800
C892        C  0.06013373  0.15740684  0.85409583    -0.19700
C893        C  0.06515972  0.13514478  0.85575689    -0.29100
C894        C  0.04313952  0.10751779  0.85067284     0.43900
C895        C  0.98073337  0.11630871  0.85081667     0.05000
O896        O  0.02775688  0.17361536  0.85073027    -0.57600
H897        H  0.07696083  0.17880389  0.85780027     0.18000
O898        O  0.04767096  0.08547196  0.85137700    -0.64300
H899        H  0.99877629  0.08044395  0.84410583     0.16400
C900        C  0.95985205  0.10370588  0.83311568     0.28700
C901        C  0.93114692  0.09136156  0.83919557    -0.25200
C902        C  0.92313051  0.09080942  0.86297824    -0.24500
C903        C  0.94437334  0.10506530  0.88026832     0.40100
C904        C  0.97275907  0.11763616  0.87409762    -0.26900
O905        O  0.96727644  0.10290888  0.81004012    -0.58800
H906        H  0.91518132  0.08086880  0.82561346     0.15800
O907        O  0.93761120  0.10581050  0.90357711    -0.60300
H908        H  0.98862694  0.12710928  0.88790404     0.14200
H909        H  0.05435767  0.08465366  0.83523476     0.46100
H910        H  0.96658840  0.08477431  0.80847698     0.41400
H911        H  0.93707800  0.12331562  0.90512418     0.44900
H912        H  0.02835338  0.17931931  0.83395742     0.36400
C913        C  0.98663968  0.92868029  0.11605407    -0.27900
C914        C  0.97334698  0.90319057  0.12866028     0.01700
C915        C  0.98988393  0.89265457  0.13753987     0.29800
C916        C  0.01906368  0.90698548  0.13283326    -0.19700
C917        C  0.03203206  0.93173466  0.11906667    -0.29100
C918        C  0.01557370  0.94293195  0.11130845     0.43900
C919        C  0.94198742  0.88697482  0.13020932     0.05000
O920        O  0.97760008  0.86797312  0.15019386    -0.57600
H921        H  0.03128427  0.89807205  0.13905576     0.18000
O922        O  0.02732050  0.96737068  0.09830099    -0.64300
H923        H  0.97427643  0.93703254  0.10893738     0.16400
C924        C  0.92746274  0.89962154  0.13920717     0.28700
C925        C  0.89839090  0.88700334  0.13530456    -0.25200
C926        C  0.88333415  0.86175436  0.12243246    -0.24500
C927        C  0.89733884  0.84789471  0.11514887     0.40100
C928        C  0.92650955  0.86056516  0.11901391    -0.26900
O929        O  0.94174240  0.92475135  0.15121161    -0.58800
H930        H  0.88784898  0.89780773  0.14123277     0.15800
O931        O  0.88348862  0.82367550  0.10195068    -0.60300
H932        H  0.93741230  0.85073770  0.11170000     0.14200
H933        H  0.03639161  0.98280110  0.11011466     0.46100
H934        H  0.94244925  0.93907624  0.14022849     0.41400
H935        H  0.87555356  0.80813097  0.11371492     0.44900
H936        H  0.97622197  0.87337335  0.16669354     0.36400
C937        C  0.17743719  0.08333945  0.01346896    -0.27900
C938        C  0.19104352  0.07629191  0.99631042     0.01700
C939        C  0.19853021  0.05623993  0.00183166     0.29800
C940        C  0.19013287  0.04177495  0.02360430    -0.19700
C941        C  0.17374544  0.04676178  0.03957802    -0.29100
C942        C  0.16869712  0.06867672  0.03492177     0.43900
C943        C  0.19109820  0.08536430  0.97162171     0.05000
O944        O  0.21299412  0.04994960  0.98567235    -0.57600
H945        H  0.19458571  0.02527844  0.02718560     0.18000
O946        O  0.15373957  0.07477335  0.05069095    -0.64300
H947        H  0.17154043  0.09871369  0.00945505     0.16400
C948        C  0.17128290  0.06568073  0.95547569     0.28700
C949        C  0.16507506  0.07493946  0.93459442    -0.25200
C950        C  0.17863381  0.10373534  0.92930000    -0.24500
C951        C  0.19999308  0.12338557  0.94449866     0.40100
C952        C  0.20588851  0.11414570  0.96571302    -0.26900
O953        O  0.15623561  0.03747180  0.96084879    -0.58800
H954        H  0.14866316  0.05964072  0.92298828     0.15800
O955        O  0.21376607  0.15170409  0.93961215    -0.60300
H956        H  0.22082665  0.12952991  0.97816740     0.14200
H957        H  0.16815166  0.09204880  0.05902308     0.46100
H958        H  0.13941163  0.03445942  0.96970688     0.41400
H959        H  0.20192327  0.15839393  0.94678043     0.44900
H960        H  0.19888375  0.03130300  0.97903989     0.36400
C961        C  0.12179619  0.09742962  0.12275478    -0.27900
C962        C  0.09513831  0.08575973  0.13361533     0.01700
C963        C  0.08165466  0.05781770  0.14202973     0.29800
C964        C  0.09288865  0.04100042  0.13678124    -0.19700
C965        C  0.11800485  0.05179574  0.12370956    -0.29100
C966        C  0.13343232  0.08066648  0.11804047     0.43900
C967        C  0.07908266  0.10038772  0.13172976     0.05000
O968        O  0.05615542  0.04600548  0.15351934    -0.57600
H969        H  0.08091696  0.01885889  0.14154110     0.18000
O970        O  0.15809824  0.09187206  0.10541118    -0.64300
H971        H  0.13247522  0.11882471  0.11606331     0.16400
C972        C  0.09014303  0.12843990  0.13920239     0.28700
C973        C  0.07499059  0.14196710  0.13486343    -0.25200
C974        C  0.04917861  0.12800495  0.12255494    -0.24500
C975        C  0.03786362  0.09969667  0.11577089     0.40100
C976        C  0.05275973  0.08625946  0.12030260    -0.26900
O977        O  0.11556636  0.14265664  0.15080796    -0.58800
H978        H  0.08403573  0.16375201  0.14016399     0.15800
O979        O  0.01257381  0.08511414  0.10398210    -0.60300
H980        H  0.04407741  0.06485806  0.11403520     0.14200
H981        H  0.17304608  0.09725462  0.11750121     0.46100
H982        H  0.12909331  0.15639666  0.13910561     0.41400
H983        H  0.99790008  0.07866762  0.11649668     0.44900
H984        H  0.06094966  0.05041141  0.17053700     0.36400
C985        C  0.84226684  0.80806075  0.95716585    -0.27900
C986        C  0.83684414  0.78559631  0.97205428     0.01700
C987        C  0.84439069  0.76618294  0.96448794     0.29800
C988        C  0.85884256  0.77050163  0.94284910    -0.19700
C989        C  0.86657635  0.79456469  0.92905014    -0.29100
C990        C  0.85725646  0.81283197  0.93600333     0.43900
C991        C  0.82946383  0.78701225  0.99706805     0.05000
O992        O  0.83907901  0.74387524  0.97868252    -0.57600
H993        H  0.86592318  0.75631504  0.93784069     0.18000
O994        O  0.86363104  0.83606948  0.92259641    -0.64300
H995        H  0.83675258  0.82325387  0.96287709     0.16400
C996        C  0.85134377  0.80444077  0.01280287     0.28700
C997        C  0.84511177  0.81181301  0.03463096    -0.25200
C998        C  0.81708586  0.80175371  0.04143953    -0.24500
C999        C  0.79496691  0.78263282  0.02647641     0.40100
C1000       C  0.80126598  0.77554696  0.00425245    -0.26900
O1001       O  0.87905473  0.81636412  0.00608914    -0.58800
H1002       H  0.86238565  0.82647402  0.04592021     0.15800
O1003       O  0.76733243  0.77228602  0.03265686    -0.60300
H1004       H  0.78425014  0.76233943  0.99216825     0.14200
H1005       H  0.87966254  0.85227051  0.93084781     0.46100
H1006       H  0.88411163  0.80212498  0.01006334     0.41400
H1007       H  0.76302322  0.78658317  0.02702909     0.44900
H1008       H  0.85658859  0.75052898  0.98802561     0.36400
C1009       C  0.90437525  0.91403863  0.84564392    -0.27900
C1010       C  0.87690159  0.90486702  0.85366123     0.01700
C1011       C  0.85872072  0.87609245  0.85918270     0.29800
C1012       C  0.86893572  0.85769295  0.85878357    -0.19700
C1013       C  0.89734369  0.86772899  0.85341154    -0.29100
C1014       C  0.91468734  0.89576567  0.84561426     0.43900
C1015       C  0.86866038  0.92590061  0.85898568     0.05000
O1016       O  0.83164418  0.86619192  0.86683553    -0.57600
H1017       H  0.85533011  0.83621638  0.86489395     0.18000
O1018       O  0.94234518  0.90604783  0.83952874    -0.64300
H1019       H  0.91841944  0.93588892  0.84069779     0.16400
C1020       C  0.88586174  0.94930311  0.87359617     0.28700
C1021       C  0.87726344  0.96810244  0.87976265    -0.25200
C1022       C  0.85120993  0.96385582  0.87206417    -0.24500
C1023       C  0.83399513  0.94048841  0.85736314     0.40100
C1024       C  0.84289596  0.92192253  0.85079053    -0.26900
O1025       O  0.91083835  0.95361543  0.88254495    -0.58800
H1026       H  0.89084045  0.98573377  0.89117764     0.15800
O1027       O  0.80875033  0.93588955  0.84885750    -0.60300
H1028       H  0.82950810  0.90422384  0.83937673     0.14200
H1029       H  0.94172634  0.89958368  0.82301186     0.46100
H1030       H  0.90576134  0.94311907  0.89776606     0.41400
H1031       H  0.79428890  0.92235215  0.86012473     0.44900
H1032       H  0.83308924  0.86871553  0.88430299     0.36400
C1033       C  0.00329187  0.85812366  0.98542567    -0.27900
C1034       C  0.03061700  0.86285103  0.98362533     0.01700
C1035       C  0.03859460  0.85407281  0.96333154     0.29800
C1036       C  0.01978312  0.84231810  0.94433813    -0.19700
C1037       C  0.99315545  0.83981396  0.94517437    -0.29100
C1038       C  0.98449999  0.84661243  0.96644821     0.43900
C1039       C  0.05151379  0.88070588  0.00153082     0.05000
O1040       O  0.06508442  0.85794793  0.96157696    -0.57600
H1041       H  0.02683067  0.83688476  0.92838410     0.18000
O1042       O  0.95860275  0.84410783  0.96836747    -0.64300
H1043       H  0.99711136  0.86496220  0.00109040     0.16400
C1044       C  0.06882432  0.90979461  0.99741821     0.28700
C1045       C  0.08456413  0.92771955  0.01598329    -0.25200
C1046       C  0.08304371  0.91699920  0.03889306    -0.24500
C1047       C  0.06734121  0.88744779  0.04241486     0.40100
C1048       C  0.05141577  0.86959190  0.02380753    -0.26900
O1049       O  0.06922381  0.92103491  0.97562145    -0.58800
H1050       H  0.09677101  0.95020840  0.01266669     0.15800
O1051       O  0.06576298  0.87583140  0.06426727    -0.60300
H1052       H  0.03802918  0.84715990  0.02702248     0.14200
H1053       H  0.94559369  0.82450037  0.97380042     0.46100
H1054       H  0.05377744  0.92509884  0.97616642     0.41400
H1055       H  0.08195678  0.87288964  0.06476070     0.44900
H1056       H  0.07671122  0.87639000  0.95353603     0.36400
C1057       C  0.05690866  0.95167192  0.87633851    -0.27900
C1058       C  0.06032829  0.96091734  0.85277941     0.01700
C1059       C  0.04555825  0.94128524  0.83461217     0.29800
C1060       C  0.02666321  0.91283600  0.84031923    -0.19700
C1061       C  0.02175056  0.90406832  0.86412104    -0.29100
C1062       C  0.03759180  0.92358983  0.88212112     0.43900
C1063       C  0.07691233  0.99158333  0.84827627     0.05000
O1064       O  0.04900263  0.94986707  0.81139369    -0.57600
H1065       H  0.01453287  0.89807863  0.82632414     0.18000
O1066       O  0.03396873  0.91543607  0.90550082    -0.64300
H1067       H  0.06820608  0.96663028  0.89045332     0.16400
C1068       C  0.06301130  0.00662884  0.84591147     0.28700
C1069       C  0.07828664  0.03602573  0.84790400    -0.25200
C1070       C  0.10758132  0.05091503  0.85200258    -0.24500
C1071       C  0.12178834  0.03588555  0.85226101     0.40100
C1072       C  0.10635398  0.00638976  0.85075654    -0.26900
O1073       O  0.03414796  0.99259046  0.84402899    -0.58800
H1074       H  0.06688286  0.04702785  0.84757515     0.15800
O1075       O  0.15029806  0.04942103  0.85630585    -0.60300
H1076       H  0.11719452  0.99494183  0.85285044     0.14200
H1077       H  0.02164658  0.92173940  0.91233809     0.46100
H1078       H  0.03036207  0.99357213  0.82696729     0.41400
H1079       H  0.15910612  0.05510860  0.84037180     0.44900
H1080       H  0.03254978  0.95176720  0.80777289     0.36400
C1081       C  0.95765712  0.79461709  0.70997202    -0.27900
C1082       C  0.97266102  0.81554326  0.72696692     0.01700
C1083       C  0.99676661  0.84110682  0.71996147     0.29800
C1084       C  0.00539414  0.84556927  0.69617858    -0.19700
C1085       C  0.99022106  0.82478373  0.67894962    -0.29100
C1086       C  0.96628800  0.79891036  0.68621690     0.43900
C1087       C  0.96372449  0.81031712  0.75215278     0.05000
O1088       O  0.01185294  0.86203028  0.73622872    -0.57600
H1089       H  0.02369527  0.86560514  0.69117294     0.18000
O1090       O  0.95082968  0.77769359  0.67028039    -0.64300
H1091       H  0.93931892  0.77470834  0.71519891     0.16400
C1092       C  0.93724050  0.80545667  0.75947259     0.28700
C1093       C  0.93046692  0.80285654  0.78372869    -0.25200
C1094       C  0.94963689  0.80445096  0.80094454    -0.24500
C1095       C  0.97566392  0.80800941  0.79325493     0.40100
C1096       C  0.98241754  0.81093458  0.76914156    -0.26900
O1097       O  0.91847072  0.80464965  0.74315613    -0.58800
H1098       H  0.91035808  0.80002534  0.78905393     0.15800
O1099       O  0.99501668  0.80911629  0.80909241    -0.60300
H1100       H  0.00263737  0.81411941  0.76367085     0.14200
H1101       H  0.95988315  0.76626924  0.67000349     0.46100
H1102       H  0.90462169  0.78432800  0.74056885     0.41400
H1103       H  0.00790615  0.82943901  0.81251956     0.44900
H1104       H  0.00191996  0.87257788  0.73737038     0.36400
C1105       C  0.78145691  0.83269657  0.27236007    -0.27900
C1106       C  0.77905714  0.81127237  0.25753845     0.01700
C1107       C  0.77982259  0.78847425  0.26783434     0.29800
C1108       C  0.78434768  0.78809431  0.29230610    -0.19700
C1109       C  0.78742920  0.80989875  0.30704639    -0.29100
C1110       C  0.78552562  0.83213316  0.29683834     0.43900
C1111       C  0.77873794  0.81439601  0.23128913     0.05000
O1112       O  0.77646774  0.76657893  0.25405773    -0.57600
H1113       H  0.78529635  0.77061854  0.29978730     0.18000
O1114       O  0.78871867  0.85407094  0.31047134    -0.64300
H1115       H  0.78139246  0.85062359  0.26483057     0.16400
C1116       C  0.75970902  0.82035035  0.21992598     0.28700
C1117       C  0.76111972  0.82445399  0.19520686    -0.25200
C1118       C  0.78147927  0.82289880  0.18145444    -0.24500
C1119       C  0.80071254  0.81733314  0.19301497     0.40100
C1120       C  0.79913097  0.81305890  0.21755670    -0.26900
O1121       O  0.73902712  0.82113588  0.23269444    -0.58800
H1122       H  0.74600673  0.82851742  0.18676822     0.15800
O1123       O  0.82149429  0.81635592  0.18059617    -0.60300
H1124       H  0.81443112  0.80927779  0.22601025     0.14200
H1125       H  0.80888616  0.86900282  0.30879617     0.46100
H1126       H  0.74485309  0.84130913  0.23330080     0.41400
H1127       H  0.83752419  0.83614676  0.17992799     0.44900
H1128       H  0.75578934  0.75303773  0.25354039     0.36400
C1129       C  0.90105306  0.79700950  0.45175162    -0.27900
C1130       C  0.89656802  0.80272735  0.47509440     0.01700
C1131       C  0.87502095  0.80840660  0.47957423     0.29800
C1132       C  0.85924062  0.80959925  0.46079962    -0.19700
C1133       C  0.86449828  0.80527464  0.43724299    -0.29100
C1134       C  0.88498214  0.79795981  0.43287486     0.43900
C1135       C  0.91626554  0.80614456  0.49439214     0.05000
O1136       O  0.87105611  0.81547978  0.50197045    -0.57600
H1137       H  0.84366680  0.81530082  0.46463684     0.18000
O1138       O  0.89115143  0.79408287  0.41014813    -0.64300
H1139       H  0.91773534  0.79281741  0.44807650     0.16400
C1140       C  0.90629587  0.79038021  0.51546290     0.28700
C1141       C  0.92388768  0.79803926  0.53532479    -0.25200
C1142       C  0.95165467  0.82145270  0.53462817    -0.24500
C1143       C  0.96224623  0.83591956  0.51291596     0.40100
C1144       C  0.94459319  0.82808007  0.49299726    -0.26900
O1145       O  0.87890709  0.76835611  0.51719327    -0.58800
H1146       H  0.91521084  0.78635570  0.55165292     0.15800
O1147       O  0.98953098  0.85815432  0.51105818    -0.60300
H1148       H  0.95258787  0.84028244  0.47681445     0.14200
H1149       H  0.87878298  0.77359030  0.40714059     0.46100
H1150       H  0.87933495  0.75158522  0.51178686     0.41400
H1151       H  0.98835276  0.87527914  0.51299896     0.44900
H1152       H  0.85323831  0.79890608  0.50773855     0.36400
C1153       C  0.80992546  0.98008357  0.72311193    -0.27900
C1154       C  0.79671527  0.99397360  0.73208951     0.01700
C1155       C  0.78130941  0.00091467  0.71658550     0.29800
C1156       C  0.77914558  0.99378734  0.69253620    -0.19700
C1157       C  0.79175997  0.97924891  0.68369834    -0.29100
C1158       C  0.80737093  0.97252203  0.69916999     0.43900
C1159       C  0.79903600  0.00081967  0.75769300     0.05000
O1160       O  0.76802352  0.01434004  0.72482109    -0.57600
H1161       H  0.76714921  0.99920727  0.68083741     0.18000
O1162       O  0.82138752  0.95986642  0.69082958    -0.64300
H1163       H  0.82244581  0.97523935  0.73470607     0.16400
C1164       C  0.79097215  0.97956780  0.77483221     0.28700
C1165       C  0.79427991  0.98639531  0.79892963    -0.25200
C1166       C  0.80591572  0.01443859  0.80652427    -0.24500
C1167       C  0.81359745  0.03570408  0.78927811     0.40100
C1168       C  0.81001127  0.02875668  0.76509946    -0.26900
O1169       O  0.77904978  0.95189595  0.76816870    -0.58800
H1170       H  0.78790237  0.96953080  0.81168825     0.15800
O1171       O  0.82446120  0.06327006  0.79574575    -0.60300
H1172       H  0.81635330  0.04533986  0.75206146     0.14200
H1173       H  0.80926438  0.93968421  0.69511835     0.46100
H1174       H  0.79394173  0.94730923  0.77072466     0.41400
H1175       H  0.84525690  0.07198560  0.79519372     0.44900
H1176       H  0.74866212  0.99902001  0.72906363     0.36400
C1177       C  0.74890892  0.87993920  0.51641113    -0.27900
C1178       C  0.75366777  0.85743045  0.51699788     0.01700
C1179       C  0.75813272  0.84832763  0.53902044     0.29800
C1180       C  0.76171698  0.86403724  0.55950577    -0.19700
C1181       C  0.76000482  0.88828357  0.55836550    -0.29100
C1182       C  0.75201066  0.89536311  0.53703295     0.43900
C1183       C  0.76088833  0.84849364  0.49470275     0.05000
O1184       O  0.76190309  0.82581477  0.54021082    -0.57600
H1185       H  0.76801613  0.85856350  0.57587526     0.18000
O1186       O  0.74950202  0.91866638  0.53577064    -0.64300
H1187       H  0.74552321  0.88726935  0.49963221     0.16400
C1188       C  0.74241299  0.83794046  0.47516533     0.28700
C1189       C  0.75169566  0.83276860  0.45360180    -0.25200
C1190       C  0.77962857  0.83901964  0.45110915    -0.24500
C1191       C  0.79782662  0.84911312  0.47084692     0.40100
C1192       C  0.78833385  0.85350639  0.49238754    -0.26900
O1193       O  0.71536573  0.83257018  0.47704116    -0.58800
H1194       H  0.73746371  0.82503793  0.43855960     0.15800
O1195       O  0.82493425  0.85453781  0.46932989    -0.60300
H1196       H  0.80293518  0.86197099  0.50716721     0.14200
H1197       H  0.76890501  0.93478089  0.53297526     0.46100
H1198       H  0.71562357  0.84859718  0.46898911     0.41400
H1199       H  0.83698787  0.87522548  0.46707573     0.44900
H1200       H  0.74290426  0.80933835  0.54369295     0.36400
C1201       C  0.84045566  0.86951457  0.63410139    -0.27900
C1202       C  0.87000229  0.88534230  0.63543824     0.01700
C1203       C  0.88395474  0.91484801  0.63713440     0.29800
C1204       C  0.86862403  0.92833634  0.63522949    -0.19700
C1205       C  0.83922555  0.91272501  0.63181365    -0.29100
C1206       C  0.82495586  0.88299475  0.63264267     0.43900
C1207       C  0.88652746  0.87210128  0.62977180     0.05000
O1208       O  0.91287129  0.93080347  0.63818944    -0.57600
H1209       H  0.88001003  0.95116961  0.63490389     0.18000
O1210       O  0.79628983  0.86693560  0.62945499    -0.64300
H1211       H  0.82956578  0.84677697  0.63257028     0.16400
C1212       C  0.89853835  0.86364481  0.64746023     0.28700
C1213       C  0.91799702  0.85568524  0.64112204    -0.25200
C1214       C  0.92577458  0.85647635  0.61724347    -0.24500
C1215       C  0.91239361  0.86342709  0.59957303     0.40100
C1216       C  0.89286417  0.87099686  0.60590784    -0.26900
O1217       O  0.89256338  0.86453219  0.67094252    -0.58800
H1218       H  0.92809164  0.85037086  0.65490207     0.15800
O1219       O  0.91839392  0.86297486  0.57599293    -0.60300
H1220       H  0.88353341  0.87727102  0.59216195     0.14200
H1221       H  0.78824578  0.86229311  0.64570291     0.46100
H1222       H  0.87414544  0.84695625  0.67373676     0.41400
H1223       H  0.93175817  0.88293662  0.57164764     0.44900
H1224       H  0.91754888  0.93109467  0.65520892     0.36400
C1225       C  0.15656548  0.02189834  0.25901820    -0.27900
C1226       C  0.15056833  0.99549502  0.25070398     0.01700
C1227       C  0.14597241  0.97440284  0.26698083     0.29800
C1228       C  0.14720025  0.97973008  0.29125499    -0.19700
C1229       C  0.15275249  0.00595172  0.29980394    -0.29100
C1230       C  0.15746633  0.02717753  0.28341966     0.43900
C1231       C  0.14926490  0.99008701  0.22499410     0.05000
O1232       O  0.14135632  0.94888996  0.25926380    -0.57600
H1233       H  0.14389528  0.96316520  0.30342916     0.18000
O1234       O  0.16264142  0.05293520  0.29095018    -0.64300
H1235       H  0.16011665  0.03827436  0.24652472     0.16400
C1236       C  0.12408820  0.96904181  0.21429617     0.28700
C1237       C  0.12322061  0.96451508  0.18983155    -0.25200
C1238       C  0.14709944  0.98124471  0.17574679    -0.24500
C1239       C  0.17250109  0.00172539  0.18657474     0.40100
C1240       C  0.17341071  0.00610777  0.21105056    -0.26900
O1241       O  0.10000232  0.95347751  0.22748767    -0.58800
H1242       H  0.10346250  0.94891705  0.18170025     0.15800
O1243       O  0.19643509  0.01779103  0.17333088    -0.60300
H1244       H  0.19296827  0.02210119  0.21918347     0.14200
H1245       H  0.14374330  0.05027789  0.29386844     0.46100
H1246       H  0.09062703  0.96460438  0.22754957     0.41400
H1247       H  0.20611680  0.00695500  0.17297132     0.44900
H1248       H  0.12113177  0.93513598  0.26252702     0.36400
C1249       C  0.10670540  0.93430359  0.52442019    -0.27900
C1250       C  0.10572285  0.91480098  0.50805098     0.01700
C1251       C  0.09309762  0.88629292  0.51468210     0.29800
C1252       C  0.07983050  0.87730973  0.53688322    -0.19700
C1253       C  0.07840625  0.89645168  0.55219939    -0.29100
C1254       C  0.09300893  0.92529536  0.54629874     0.43900
C1255       C  0.11291632  0.92386398  0.48306576     0.05000
O1256       O  0.09263568  0.86701456  0.49915756    -0.57600
H1257       H  0.06862523  0.85505902  0.54122467     0.18000
O1258       O  0.09222698  0.94452457  0.56107263    -0.64300
H1259       H  0.11619765  0.95627073  0.51946820     0.16400
C1260       C  0.09101504  0.91501639  0.46634092     0.28700
C1261       C  0.09635047  0.92880902  0.44453188    -0.25200
C1262       C  0.12343972  0.95123652  0.43894417    -0.24500
C1263       C  0.14588821  0.95859281  0.45473266     0.40100
C1264       C  0.14043532  0.94524347  0.47690618    -0.26900
O1265       O  0.06387145  0.89433395  0.47184882    -0.58800
H1266       H  0.07897839  0.92285438  0.43237523     0.15800
O1267       O  0.17255935  0.98054435  0.44964133    -0.60300
H1268       H  0.15735613  0.95249717  0.48975133     0.14200
H1269       H  0.10909502  0.95159047  0.57142382     0.46100
H1270       H  0.05540552  0.90423102  0.47967629     0.41400
H1271       H  0.18164065  0.97197179  0.44065942     0.44900
H1272       H  0.07281672  0.85554502  0.49360496     0.36400
C1273       C  0.95282537  0.91016310  0.35143107    -0.27900
C1274       C  0.96571417  0.89458890  0.34640103    -0.01900
C1275       C  0.94851362  0.86509159  0.34369677     0.29800
C1276       C  0.91931400  0.85157241  0.34769367    -0.19700
C1277       C  0.90699967  0.86718447  0.35435957    -0.29100
C1278       C  0.92376507  0.89672742  0.35517905     0.43900
C1279       C  0.99707225  0.90921020  0.34723787     0.05000
O1280       O  0.96019067  0.84918283  0.33837709    -0.57600
H1281       H  0.90661633  0.82876305  0.34709797     0.18000
O1282       O  0.91216131  0.91258362  0.36101224    -0.64300
H1283       H  0.96549518  0.93274861  0.35398255     0.16400
C1284       C  0.01403380  0.93557651  0.33611831     0.28700
C1285       C  0.04263429  0.95239252  0.34210724    -0.25200
C1286       C  0.05487293  0.94298368  0.35861352    -0.24500
C1287       C  0.03877778  0.91558997  0.36789103     0.40100
C1288       C  0.00996806  0.89902543  0.36244332    -0.26900
O1289       O  0.00262764  0.94517063  0.31970774    -0.58800
H1290       H  0.05505012  0.97333066  0.33453983     0.15800
O1291       O  0.05023011  0.90598819  0.38418250    -0.60300
H1292       H  0.99734319  0.87901968  0.37145045     0.14200
H1293       H  0.90390432  0.91452670  0.34603950     0.46100
H1294       H  0.00393596  0.96215095  0.32683523     0.41400
H1295       H  0.05757988  0.89610351  0.37470929     0.44900
H1296       H  0.96000729  0.84816021  0.32080793     0.36400
C1297       C  0.17096844  0.16170896  0.75882868    -0.27900
C1298       C  0.16340205  0.18116924  0.75172158     0.01700
C1299       C  0.15787215  0.19584929  0.76913352     0.29800
C1300       C  0.15927909  0.19049924  0.79315522    -0.19700
C1301       C  0.16626259  0.17058275  0.80035629    -0.29100
C1302       C  0.17242330  0.15634450  0.78290478     0.43900
C1303       C  0.16012399  0.18506585  0.72615895     0.05000
O1304       O  0.15081558  0.21530684  0.76285676    -0.57600
H1305       H  0.15438423  0.20170471  0.80618187     0.18000
O1306       O  0.18032323  0.13750981  0.78911638    -0.64300
H1307       H  0.17513570  0.15011423  0.74564933     0.16400
C1308       C  0.18191166  0.19156164  0.70985151     0.28700
C1309       C  0.17767245  0.19361182  0.68562211    -0.25200
C1310       C  0.15176262  0.18916417  0.67717048    -0.24500
C1311       C  0.13024844  0.18347131  0.69371646     0.40100
C1312       C  0.13449965  0.18129238  0.71789238    -0.26900
O1313       O  0.20766123  0.19666717  0.71753572    -0.58800
H1314       H  0.19470176  0.19837316  0.67341357     0.15800
O1315       O  0.10462117  0.17907537  0.68650700    -0.60300
H1316       H  0.11743370  0.17604725  0.73021664     0.14200
H1317       H  0.16277317  0.11871672  0.78827817     0.46100
H1318       H  0.20843403  0.17988738  0.71273682     0.41400
H1319       H  0.10670632  0.19793226  0.68696674     0.44900
H1320       H  0.16908070  0.23321618  0.76064827     0.36400
C1321       C  0.17312720  0.08659707  0.47980788    -0.27900
C1322       C  0.18316998  0.11513497  0.47534377     0.01700
C1323       C  0.19101892  0.12560850  0.45210282     0.29800
C1324       C  0.18612173  0.10699247  0.43335823    -0.19700
C1325       C  0.17301733  0.07786541  0.43750525    -0.29100
C1326       C  0.16812655  0.06799297  0.46115765     0.43900
C1327       C  0.18121620  0.13226822  0.49452014     0.05000
O1328       O  0.20290081  0.15386821  0.44760884    -0.57600
H1329       H  0.19082745  0.11519353  0.41541473     0.18000
O1330       O  0.15682015  0.03995816  0.46621783    -0.64300
H1331       H  0.16735290  0.07832640  0.49768571     0.16400
C1332       C  0.16215438  0.14175617  0.49246556     0.28700
C1333       C  0.15544694  0.15217225  0.51239466    -0.25200
C1334       C  0.16757435  0.15346900  0.53460006    -0.24500
C1335       C  0.18812710  0.14571882  0.53624066     0.40100
C1336       C  0.19458538  0.13499024  0.51632522    -0.26900
O1337       O  0.14771437  0.13811712  0.47169887    -0.58800
H1338       H  0.13955442  0.15786735  0.51066989     0.15800
O1339       O  0.20013957  0.14606615  0.55761013    -0.60300
H1340       H  0.20902426  0.12743805  0.51819375     0.14200
H1341       H  0.17301509  0.03701829  0.46582127     0.46100
H1342       H  0.15524095  0.15736012  0.46527414     0.41400
H1343       H  0.21848276  0.16417597  0.55784358     0.44900
H1344       H  0.18942200  0.15544525  0.43710487     0.36400
C1345       C  0.99079528  0.12211348  0.62574875    -0.27900
C1346       C  0.97661182  0.09269408  0.62687328     0.01700
C1347       C  0.99217869  0.07917797  0.62663601     0.29800
C1348       C  0.02152972  0.09504526  0.62367189    -0.19700
C1349       C  0.03574104  0.12449446  0.62122439    -0.29100
C1350       C  0.02013104  0.13807412  0.62309506     0.43900
C1351       C  0.94560984  0.07616776  0.62457030     0.05000
O1352       O  0.97862975  0.05033080  0.62728985    -0.57600
H1353       H  0.03302073  0.08416777  0.62231792     0.18000
O1354       O  0.03299683  0.16678085  0.62093128    -0.64300
H1355       H  0.97891172  0.13264971  0.62580421     0.16400
C1356       C  0.92808857  0.05921373  0.64320382     0.28700
C1357       C  0.89906675  0.04114321  0.63926818    -0.25200
C1358       C  0.88754384  0.03970045  0.61677232    -0.24500
C1359       C  0.90487107  0.05771311  0.59856138     0.40100
C1360       C  0.93368876  0.07591225  0.60257066    -0.26900
O1361       O  0.93931350  0.05928321  0.66490439    -0.58800
H1362       H  0.88586662  0.02718952  0.65333793     0.15800
O1363       O  0.89398943  0.05675925  0.57647260    -0.60300
H1364       H  0.94701973  0.08897210  0.58814580     0.14200
H1365       H  0.03241151  0.17027768  0.60373595     0.46100
H1366       H  0.94170692  0.07614507  0.67319946     0.41400
H1367       H  0.88705548  0.07001408  0.57726262     0.44900
H1368       H  0.97989129  0.04563308  0.64404684     0.36400
C1369       C  0.10249996  0.98882079  0.63312799    -0.27900
C1370       C  0.08942853  0.00457264  0.63075204     0.01700
C1371       C  0.05999981  0.99050634  0.62763907     0.29800
C1372       C  0.04417179  0.96114734  0.62595658    -0.19700
C1373       C  0.05722114  0.94519808  0.62717067    -0.29100
C1374       C  0.08665046  0.95931576  0.63149784     0.43900
C1375       C  0.10649784  0.03562403  0.62881896     0.05000
O1376       O  0.04688864  0.00546969  0.62408192    -0.57600
H1377       H  0.02174555  0.95099965  0.62244200     0.18000
O1378       O  0.10037604  0.94472753  0.63317298    -0.64300
H1379       H  0.12518001  0.99949065  0.63544306     0.16400
C1380       C  0.10242612  0.05275936  0.64472870     0.28700
C1381       C  0.11318561  0.08117169  0.63931990    -0.25200
C1382       C  0.12793359  0.09262676  0.61811063    -0.24500
C1383       C  0.13393552  0.07613526  0.60311957     0.40100
C1384       C  0.12350026  0.04781904  0.60867956    -0.26900
O1385       O  0.08615482  0.04136090  0.66465169    -0.58800
H1386       H  0.10822400  0.09368065  0.65080776     0.15800
O1387       O  0.14896488  0.08724587  0.58253906    -0.60300
H1388       H  0.12686253  0.03486194  0.59633752     0.14200
H1389       H  0.10743669  0.94492246  0.61682745     0.46100
H1390       H  0.09978255  0.04564021  0.67771700     0.41400
H1391       H  0.13461476  0.08290200  0.57009543     0.44900
H1392       H  0.03692458  0.00384542  0.63916258     0.36400
C1393       C  0.94833193  0.17229333  0.26337878    -0.27900
C1394       C  0.97285134  0.17381395  0.25453489     0.01700
C1395       C  0.99173445  0.17278424  0.27059312     0.29800
C1396       C  0.98621959  0.17063936  0.29494549    -0.19700
C1397       C  0.96167703  0.16899682  0.30388099    -0.29100
C1398       C  0.94253152  0.16962733  0.28782239     0.43900
C1399       C  0.97848641  0.17611516  0.22858611     0.05000
O1400       O  0.01549583  0.17346114  0.26265147    -0.57600
H1401       H  0.00104899  0.16971526  0.30689416     0.18000
O1402       O  0.91872361  0.16877620  0.29583949    -0.64300
H1403       H  0.93372650  0.17338876  0.25129668     0.16400
C1404       C  0.95834630  0.15631696  0.21274910     0.28700
C1405       C  0.96406993  0.15868189  0.18839933    -0.25200
C1406       C  0.98982971  0.18065630  0.17927063    -0.24500
C1407       C  0.01022835  0.20019643  0.19516608     0.40100
C1408       C  0.00437988  0.19795608  0.21957381    -0.26900
O1409       O  0.93350236  0.13387101  0.22102581    -0.58800
H1410       H  0.94827608  0.14299493  0.17661565     0.15800
O1411       O  0.03545945  0.22214620  0.18702298    -0.60300
H1412       H  0.02006132  0.21347362  0.23151590     0.14200
H1413       H  0.90341431  0.14872712  0.29456907     0.46100
H1414       H  0.91877589  0.13829662  0.21707542     0.41400
H1415       H  0.04883161  0.21535570  0.18801628     0.44900
H1416       H  0.00914793  0.15366563  0.25852544     0.36400
C1417       C  0.83312223  0.01982005  0.49552360    -0.27900
C1418       C  0.83515498  0.04606853  0.49540156     0.01700
C1419       C  0.82647388  0.05457557  0.51554294     0.29800
C1420       C  0.81785738  0.03779489  0.53603175    -0.19700
C1421       C  0.81794860  0.01250495  0.53687901    -0.29100
C1422       C  0.82451444  0.00298915  0.51595294     0.43900
C1423       C  0.84970814  0.06563382  0.47534079     0.05000
O1424       O  0.82654051  0.07935001  0.51530280    -0.57600
H1425       H  0.81220715  0.04526252  0.55159724     0.18000
O1426       O  0.82454353  0.97828402  0.51566433    -0.64300
H1427       H  0.83972313  0.01300681  0.48010646     0.16400
C1428       C  0.87541954  0.09104274  0.47922704     0.28700
C1429       C  0.89151718  0.10722431  0.45993053    -0.25200
C1430       C  0.88268203  0.09842079  0.43656782    -0.24500
C1431       C  0.85628124  0.07374184  0.43261204     0.40100
C1432       C  0.84004961  0.05744154  0.45197266    -0.26900
O1433       O  0.88641240  0.09862818  0.50168633    -0.58800
H1434       H  0.91178644  0.12602682  0.46322905     0.15800
O1435       O  0.84751869  0.06386671  0.41002568    -0.60300
H1436       H  0.82051782  0.03770959  0.44873361     0.14200
H1437       H  0.80772522  0.96494825  0.50623275     0.46100
H1438       H  0.88665923  0.11624336  0.50528246     0.41400
H1439       H  0.83567490  0.07160609  0.40514477     0.44900
H1440       H  0.84062128  0.09160694  0.52737161     0.36400
C1441       C  0.08091366  0.20093406  0.50396176    -0.27900
C1442       C  0.05883603  0.20586718  0.50787637     0.01700
C1443       C  0.05206177  0.20920874  0.53128884     0.29800
C1444       C  0.06627715  0.20593817  0.55044805    -0.19700
C1445       C  0.08691512  0.19899709  0.54636942    -0.29100
C1446       C  0.09482802  0.19738370  0.52301631     0.43900
C1447       C  0.04009615  0.20206819  0.48774913     0.05000
O1448       O  0.03039192  0.21379381  0.53558235    -0.57600
H1449       H  0.05991031  0.20696440  0.56842503     0.18000
O1450       O  0.11483549  0.19042613  0.51865798    -0.64300
H1451       H  0.08599131  0.19776168  0.48610286     0.16400
C1452       C  0.05064038  0.21809086  0.46680191     0.28700
C1453       C  0.03384795  0.21000640  0.44630023    -0.25200
C1454       C  0.00701901  0.18541608  0.44628617    -0.24500
C1455       C  0.99606492  0.17019189  0.46750891     0.40100
C1456       C  0.01248343  0.17871108  0.48808703    -0.26900
O1457       O  0.07759781  0.24107658  0.46607384    -0.58800
H1458       H  0.04254871  0.22179061  0.43001463     0.15800
O1459       O  0.96985999  0.14610564  0.46795299    -0.60300
H1460       H  0.00428519  0.16589127  0.50394678     0.14200
H1461       H  0.13324724  0.20813636  0.52097176     0.46100
H1462       H  0.08887493  0.23470794  0.45737015     0.41400
H1463       H  0.95801318  0.15092973  0.47764575     0.44900
H1464       H  0.03963067  0.23443178  0.53794525     0.36400
C1465       C  0.82608894  0.95199994  0.37623816    -0.27900
C1466       C  0.84244532  0.96400408  0.35571463     0.01700
C1467       C  0.84635212  0.94683016  0.33976444     0.29800
C1468       C  0.83660820  0.91882998  0.34563582    -0.19700
C1469       C  0.82199972  0.90738724  0.36689644    -0.29100
C1470       C  0.81582848  0.92372730  0.38188896     0.43900
C1471       C  0.86017956  0.99494551  0.35375632     0.05000
O1472       O  0.86168828  0.95790824  0.31934485    -0.57600
H1473       H  0.84187970  0.90650120  0.33424431     0.18000
O1474       O  0.80203512  0.91300844  0.40302977    -0.64300
H1475       H  0.82329601  0.96509739  0.38884720     0.16400
C1476       C  0.84852321  0.01220733  0.35320599     0.28700
C1477       C  0.86635133  0.04156804  0.35447848    -0.25200
C1478       C  0.89562119  0.05372138  0.35714126    -0.24500
C1479       C  0.90725498  0.03648089  0.35697610     0.40100
C1480       C  0.88959637  0.00734595  0.35494742    -0.26900
O1481       O  0.81984258  0.00054095  0.35184722    -0.58800
H1482       H  0.85716053  0.05468338  0.35509801     0.15800
O1483       O  0.93582877  0.04794286  0.35938093    -0.60300
H1484       H  0.89880742  0.99425021  0.35564735     0.14200
H1485       H  0.81705571  0.91677417  0.41465797     0.46100
H1486       H  0.81372426  0.00125271  0.36824614     0.41400
H1487       H  0.93882265  0.04578175  0.37641569     0.44900
H1488       H  0.84800091  0.95716130  0.30758190     0.36400
C1489       C  0.10431061  0.11156700  0.34879384    -0.27900
C1490       C  0.07588921  0.09982701  0.35544069     0.01700
C1491       C  0.06117743  0.07241214  0.36510022     0.29800
C1492       C  0.07484134  0.05745565  0.36844571    -0.19700
C1493       C  0.10328384  0.06917105  0.36218219    -0.29100
C1494       C  0.11800002  0.09635937  0.35199436     0.43900
C1495       C  0.06158364  0.11626169  0.35395013     0.05000
O1496       O  0.03352025  0.06029783  0.37204667    -0.57600
H1497       H  0.06319264  0.03665541  0.37637286     0.18000
O1498       O  0.14595258  0.10866977  0.34596235    -0.64300
H1499       H  0.11596910  0.13266228  0.34145818     0.16400
C1500       C  0.07056898  0.14047879  0.36804324     0.28700
C1501       C  0.05255761  0.15097158  0.37168345    -0.25200
C1502       C  0.02547040  0.13731283  0.36159367    -0.24500
C1503       C  0.01782614  0.11503347  0.34551816     0.40100
C1504       C  0.03582424  0.10473114  0.34176599    -0.26900
O1505       O  0.09584725  0.15259754  0.37986981    -0.58800
H1506       H  0.05877467  0.16817476  0.38403352     0.15800
O1507       O  0.99188379  0.10184158  0.33469314    -0.60300
H1508       H  0.02876099  0.08636235  0.33060755     0.14200
H1509       H  0.15651930  0.11703776  0.36088618     0.46100
H1510       H  0.09143094  0.14295831  0.39547972     0.41400
H1511       H  0.99386212  0.11426620  0.32123120     0.44900
H1512       H  0.03425938  0.06749848  0.38829818     0.36400
C1513       C  0.46717244  0.61469869  0.13623174    -0.27900
C1514       C  0.43970682  0.60106384  0.14548198     0.01700
C1515       C  0.41874453  0.60370433  0.13388636     0.29800
C1516       C  0.42545790  0.62037234  0.11360074    -0.19700
C1517       C  0.45296920  0.63438625  0.10428699    -0.29100
C1518       C  0.47387722  0.63114233  0.11560875     0.43900
C1519       C  0.43313754  0.58649450  0.16854433     0.05000
O1520       O  0.39191011  0.59115891  0.14299822    -0.57600
H1521       H  0.40899317  0.62236335  0.10517435     0.18000
O1522       O  0.50096874  0.64431741  0.10701515    -0.64300
H1523       H  0.48347904  0.61295721  0.14523742     0.16400
C1524       C  0.41525021  0.55701447  0.16992375     0.28700
C1525       C  0.40224732  0.54444253  0.19150887    -0.25200
C1526       C  0.40694585  0.56113812  0.21165261    -0.24500
C1527       C  0.42672552  0.59024365  0.21068586     0.40100
C1528       C  0.43985995  0.60274760  0.18921059    -0.26900
O1529       O  0.40817290  0.54076664  0.14984783    -0.58800
H1530       H  0.38654001  0.52211003  0.19197225     0.15800
O1531       O  0.43100042  0.60702410  0.23000889    -0.60300
H1532       H  0.45331036  0.62548359  0.18823165     0.14200
H1533       H  0.51065113  0.66343720  0.11410825     0.46100
H1534       H  0.42446561  0.53842072  0.14676370     0.41400
H1535       H  0.44559927  0.60624678  0.23957073     0.44900
H1536       H  0.38107405  0.57285282  0.13461532     0.36400
C1537       C  0.61677748  0.75462084  0.06271233    -0.27900
C1538       C  0.62144540  0.73407608  0.07222643     0.01700
C1539       C  0.59973291  0.70559149  0.07140742     0.29800
C1540       C  0.57327931  0.69812199  0.06192961    -0.19700
C1541       C  0.56826538  0.71885914  0.05301407    -0.29100
C1542       C  0.59066744  0.74728307  0.05298922     0.43900
C1543       C  0.64895872  0.74348287  0.08365167     0.05000
O1544       O  0.60373847  0.68515636  0.08085239    -0.57600
H1545       H  0.55646153  0.67618154  0.06219323     0.18000
O1546       O  0.58726389  0.76824904  0.04385516    -0.64300
H1547       H  0.63351138  0.77661198  0.06302734     0.16400
C1548       C  0.67001648  0.74086298  0.07205501     0.28700
C1549       C  0.69792493  0.75579811  0.08049072    -0.25200
C1550       C  0.70501873  0.77371680  0.10017285    -0.24500
C1551       C  0.68349122  0.77454692  0.11276198     0.40100
C1552       C  0.65572266  0.75952394  0.10446754    -0.26900
O1553       O  0.66395587  0.72548312  0.05154662    -0.58800
H1554       H  0.71435558  0.75523376  0.07051634     0.15800
O1555       O  0.68976726  0.79162535  0.13223749    -0.60300
H1556       H  0.63970020  0.76175473  0.11348636     0.14200
H1557       H  0.59145388  0.76884595  0.02667458     0.46100
H1558       H  0.66667910  0.73878596  0.03859867     0.41400
H1559       H  0.69115728  0.78080488  0.14563054     0.44900
H1560       H  0.60862634  0.67727446  0.06715863     0.36400
C1561       C  0.27413759  0.48653867  0.15419063    -0.27900
C1562       C  0.24563987  0.46528137  0.15604337     0.01700
C1563       C  0.23570963  0.44948701  0.17705674     0.29800
C1564       C  0.25363792  0.45682659  0.19670923    -0.19700
C1565       C  0.28139317  0.48023427  0.19576578    -0.29100
C1566       C  0.29206064  0.49406446  0.17380536     0.43900
C1567       C  0.22584059  0.46400224  0.13790311     0.05000
O1568       O  0.20817854  0.42772046  0.17881175    -0.57600
H1569       H  0.24508633  0.44542210  0.21317113     0.18000
O1570       O  0.31929503  0.51632662  0.17168804    -0.64300
H1571       H  0.28197419  0.49877610  0.13800373     0.16400
C1572       C  0.20908926  0.47560346  0.14297888     0.28700
C1573       C  0.19451529  0.47972050  0.12477938    -0.25200
C1574       C  0.19644677  0.47256349  0.10122582    -0.24500
C1575       C  0.21166121  0.45901014  0.09649649     0.40100
C1576       C  0.22658976  0.45526372  0.11475191    -0.26900
O1577       O  0.20817955  0.48454013  0.16548761    -0.58800
H1578       H  0.18270053  0.48975406  0.12902871     0.15800
O1579       O  0.21360261  0.45091572  0.07393406    -0.60300
H1580       H  0.23956735  0.44644046  0.11068965     0.14200
H1581       H  0.33088599  0.50767854  0.16909761     0.46100
H1582       H  0.22427262  0.50427884  0.16633457     0.41400
H1583       H  0.19691887  0.43161386  0.07216330     0.44900
H1584       H  0.19834424  0.43536228  0.18797488     0.36400
C1585       C  0.34980317  0.57670800  0.02520871    -0.27900
C1586       C  0.33567449  0.58528826  0.00989996     0.01700
C1587       C  0.35121677  0.61070721  0.99730273     0.29800
C1588       C  0.37996733  0.62865482  0.00206190    -0.19700
C1589       C  0.39355573  0.62128412  0.01905592    -0.29100
C1590       C  0.37869240  0.59451425  0.02976951     0.43900
C1591       C  0.30472254  0.57149296  0.01193096     0.05000
O1592       O  0.33792116  0.61932926  0.98201221    -0.57600
H1593       H  0.39123995  0.64920388  0.99366006     0.18000
O1594       O  0.39116742  0.58716858  0.04701682    -0.64300
H1595       H  0.33790979  0.55734614  0.03526528     0.16400
C1596       C  0.28614218  0.54509143  0.00172915     0.28700
C1597       C  0.25716196  0.53122285  0.00693300    -0.25200
C1598       C  0.24658249  0.54319392  0.02275183    -0.24500
C1599       C  0.26526646  0.57031994  0.03201226     0.40100
C1600       C  0.29399252  0.58417207  0.02654238    -0.26900
O1601       O  0.29614124  0.53259997  0.98694547    -0.58800
H1602       H  0.24319912  0.51050937  0.99949325     0.15800
O1603       O  0.25590207  0.58314946  0.04710114    -0.60300
H1604       H  0.30820709  0.60452522  0.03451541     0.14200
H1605       H  0.39943826  0.57753942  0.03845643     0.46100
H1606       H  0.30047800  0.52101127  0.99746409     0.41400
H1607       H  0.25170504  0.59499251  0.03677253     0.44900
H1608       H  0.33934181  0.61227396  0.96621339     0.36400
C1609       C  0.01930966  0.29341099  0.06911169    -0.27900
C1610       C  0.04666991  0.31516781  0.07509724     0.01700
C1611       C  0.06258969  0.30983995  0.09136280     0.29800
C1612       C  0.05152272  0.28290192  0.10092724    -0.19700
C1613       C  0.02456833  0.26078427  0.09445245    -0.29100
C1614       C  0.00824673  0.26622664  0.07858077     0.43900
C1615       C  0.05927655  0.34335055  0.06403825     0.05000
O1616       O  0.08903964  0.33097983  0.09806070    -0.57600
H1617       H  0.06437633  0.27910922  0.11306292     0.18000
O1618       O  0.98214497  0.24492661  0.07133026    -0.64300
H1619       H  0.00693938  0.29729630  0.05651186     0.16400
C1620       C  0.08203494  0.35279621  0.04815543     0.28700
C1621       C  0.09735486  0.38109135  0.04126343    -0.25200
C1622       C  0.09002396  0.40032804  0.04965566    -0.24500
C1623       C  0.06602056  0.39039599  0.06426640     0.40100
C1624       C  0.05090792  0.36205633  0.07146567    -0.26900
O1625       O  0.09027854  0.33479254  0.04017997    -0.58800
H1626       H  0.11550053  0.38818160  0.02974910     0.15800
O1627       O  0.05858523  0.40861707  0.07321683    -0.60300
H1628       H  0.03350107  0.35500278  0.08380203     0.14200
H1629       H  0.98580664  0.23636386  0.05738429     0.46100
H1630       H  0.07829972  0.32538344  0.02609725     0.41400
H1631       H  0.04422201  0.40754029  0.06205912     0.44900
H1632       H  0.10232698  0.32829895  0.08823658     0.36400
C1633       C  0.21984549  0.53131482  0.26574464    -0.27900
C1634       C  0.21495968  0.53401773  0.28970346     0.01700
C1635       C  0.22852333  0.52741763  0.30736855     0.29800
C1636       C  0.24775796  0.51930452  0.30089285    -0.19700
C1637       C  0.25412321  0.51854165  0.27687682    -0.29100
C1638       C  0.23928705  0.52369044  0.25924580     0.43900
C1639       C  0.19937959  0.54813244  0.29550027     0.05000
O1640       O  0.22390361  0.52989042  0.33090902    -0.57600
H1641       H  0.25897844  0.51535761  0.31461831     0.18000
O1642       O  0.24453378  0.52252666  0.23559251    -0.64300
H1643       H  0.20962941  0.53660140  0.25203931     0.16400
C1644       C  0.21421098  0.57766587  0.29693827     0.28700
C1645       C  0.19950128  0.59181401  0.29704409    -0.25200
C1646       C  0.16991024  0.57688687  0.29517840    -0.24500
C1647       C  0.15494617  0.54712582  0.29581119     0.40100
C1648       C  0.16978896  0.53294184  0.29570724    -0.26900
O1649       O  0.24318666  0.59294431  0.29650926    -0.58800
H1650       H  0.21145662  0.61465684  0.29677776     0.15800
O1651       O  0.12607184  0.53171843  0.29409229    -0.60300
H1652       H  0.15825646  0.51016454  0.29437958     0.14200
H1653       H  0.23391728  0.50219075  0.23152199     0.46100
H1654       H  0.24835096  0.59696331  0.27948928     0.41400
H1655       H  0.11916900  0.52950859  0.31066010     0.44900
H1656       H  0.23835363  0.54953506  0.33523766     0.36400
C1657       C  0.07868328  0.49435295  0.14369797    -0.27900
C1658       C  0.08968287  0.52222977  0.15143865     0.01700
C1659       C  0.10868108  0.54455684  0.13668272     0.29800
C1660       C  0.11791494  0.53893573  0.11544460    -0.19700
C1661       C  0.10804562  0.51112288  0.10811283    -0.29100
C1662       C  0.08727427  0.48871534  0.12191572     0.43900
C1663       C  0.08563788  0.52835418  0.17629707     0.05000
O1664       O  0.12029962  0.57199965  0.14390612    -0.57600
H1665       H  0.13359347  0.55652269  0.10496871     0.18000
O1666       O  0.07692332  0.46130539  0.11527100    -0.64300
H1667       H  0.06422296  0.47696307  0.15497142     0.16400
C1668       C  0.07294096  0.54413262  0.18160550     0.28700
C1669       C  0.07693506  0.55676626  0.20402495    -0.25200
C1670       C  0.09366502  0.55391967  0.22116552    -0.24500
C1671       C  0.10388801  0.53584669  0.21661487     0.40100
C1672       C  0.09972738  0.52310960  0.19436310    -0.26900
O1673       O  0.05866425  0.54924457  0.16440082    -0.58800
H1674       H  0.06918397  0.57084218  0.20720350     0.15800
O1675       O  0.12026068  0.53263386  0.23306467    -0.60300
H1676       H  0.10967440  0.51110451  0.19055571     0.14200
H1677       H  0.05942741  0.45582382  0.10626433     0.46100
H1678       H  0.03849508  0.53463883  0.16682950     0.41400
H1679       H  0.10667030  0.51788516  0.24410407     0.44900
H1680       H  0.10886746  0.57874091  0.13603588     0.36400
C1681       C  0.32394013  0.74832837  0.30303183    -0.27900
C1682       C  0.30745871  0.76050712  0.29977769     0.01700
C1683       C  0.32053721  0.78991842  0.29809567     0.29800
C1684       C  0.34996423  0.80652345  0.29693666    -0.19700
C1685       C  0.36631933  0.79385391  0.29683287    -0.29100
C1686       C  0.35326312  0.76478646  0.30153681     0.43900
C1687       C  0.27768542  0.74208260  0.29314090     0.05000
O1688       O  0.30475727  0.80228190  0.29529048    -0.57600
H1689       H  0.35967192  0.82891986  0.29367167     0.18000
O1690       O  0.36866966  0.75185368  0.30257124    -0.64300
H1691       H  0.31391345  0.72565331  0.30464836     0.16400
C1692       C  0.27108436  0.72600237  0.27227998     0.28700
C1693       C  0.24306607  0.70712497  0.26642442    -0.25200
C1694       C  0.22105500  0.70413837  0.28094196    -0.24500
C1695       C  0.22769674  0.72154948  0.30115514     0.40100
C1696       C  0.25598066  0.74032175  0.30719077    -0.26900
O1697       O  0.29200912  0.72831785  0.25764695    -0.58800
H1698       H  0.23866500  0.69455756  0.25051208     0.15800
O1699       O  0.20690651  0.71971471  0.31560905    -0.60300
H1700       H  0.26098406  0.75305539  0.32306565     0.14200
H1701       H  0.37560426  0.75448212  0.31914308     0.46100
H1702       H  0.29682199  0.74450263  0.24707338     0.41400
H1703       H  0.20256979  0.73369648  0.30919147     0.44900
H1704       H  0.30356118  0.80422329  0.27789546     0.36400
C1705       C  0.51808484  0.80619450  0.11755705    -0.27900
C1706       C  0.50765653  0.79355305  0.13977976     0.01700
C1707       C  0.49415515  0.76412687  0.14197219     0.29800
C1708       C  0.49040105  0.74766578  0.12208701    -0.19700
C1709       C  0.49970440  0.75991026  0.09955633    -0.29100
C1710       C  0.51433101  0.78957828  0.09746838     0.43900
C1711       C  0.50753487  0.81010312  0.16026090     0.05000
O1712       O  0.48235900  0.75106218  0.16315796    -0.57600
H1713       H  0.47909244  0.72497947  0.12428124     0.18000
O1714       O  0.52404346  0.80248091  0.07588065    -0.64300
H1715       H  0.52835170  0.82885347  0.11567753     0.16400
C1716       C  0.51971180  0.80944514  0.18196524     0.28700
C1717       C  0.51215676  0.81742773  0.20287641    -0.25200
C1718       C  0.49244581  0.82614210  0.20248492    -0.24500
C1719       C  0.48249869  0.82949645  0.18041270     0.40100
C1720       C  0.49023798  0.82163302  0.15946056    -0.26900
O1721       O  0.53715617  0.79878943  0.18314466    -0.58800
H1722       H  0.52030994  0.81494510  0.21958341     0.15800
O1723       O  0.46463454  0.83968005  0.17917696    -0.60300
H1724       H  0.48093774  0.82247810  0.14280000     0.14200
H1725       H  0.50833743  0.80392537  0.06906280     0.46100
H1726       H  0.55653546  0.81537897  0.18150142     0.41400
H1727       H  0.44545695  0.82283608  0.17726849     0.44900
H1728       H  0.49493121  0.74476442  0.16939267     0.36400
C1729       C  0.42559183  0.65374170  0.29788348    -0.27900
C1730       C  0.41229458  0.66902890  0.29403447     0.01700
C1731       C  0.38358123  0.65467227  0.28774594     0.29800
C1732       C  0.36893608  0.62554065  0.28400282    -0.19700
C1733       C  0.38250636  0.61016984  0.28655809    -0.29100
C1734       C  0.41091259  0.62449519  0.29440257     0.43900
C1735       C  0.42909885  0.70011083  0.29324524     0.05000
O1736       O  0.37029154  0.66929288  0.28333972    -0.57600
H1737       H  0.34721467  0.61521575  0.27804932     0.18000
O1738       O  0.42487306  0.61038250  0.29802485    -0.64300
H1739       H  0.44771930  0.66467166  0.30274572     0.16400
C1740       C  0.42535252  0.71650846  0.31020441     0.28700
C1741       C  0.43689818  0.74538818  0.30618940    -0.25200
C1742       C  0.45197264  0.75792503  0.28527293    -0.24500
C1743       C  0.45729590  0.74191117  0.26914279     0.40100
C1744       C  0.44614487  0.71321243  0.27333065    -0.26900
O1745       O  0.40892547  0.70414100  0.32988550    -0.58800
H1746       H  0.43236192  0.75751330  0.31852448     0.15800
O1747       O  0.47242013  0.75395554  0.24876933    -0.60300
H1748       H  0.44918739  0.70076421  0.26019400     0.14200
H1749       H  0.43590634  0.61330654  0.28331633     0.46100
H1750       H  0.42204873  0.70454455  0.34206553     0.41400
H1751       H  0.45816597  0.75074501  0.23655314     0.44900
H1752       H  0.36125860  0.66913881  0.29857805     0.36400
C1753       C  0.22265506  0.88463758  0.07790815    -0.27900
C1754       C  0.23470578  0.91184522  0.06842385     0.01700
C1755       C  0.25914188  0.92257622  0.05427703     0.29800
C1756       C  0.27051079  0.90562533  0.04910378    -0.19700
C1757       C  0.25747506  0.87779075  0.05764938    -0.29100
C1758       C  0.23375277  0.86769687  0.07268100     0.43900
C1759       C  0.22008029  0.92757422  0.07245251     0.05000
O1760       O  0.27141034  0.94911352  0.04474058    -0.57600
H1761       H  0.28874758  0.91379763  0.03755259     0.18000
O1762       O  0.22083833  0.84102386  0.08206141    -0.64300
H1763       H  0.20408748  0.87624613  0.08910396     0.16400
C1764       C  0.19200191  0.91586525  0.06485904     0.28700
C1765       C  0.17648086  0.92800545  0.07181535    -0.25200
C1766       C  0.18837623  0.95193983  0.08650304    -0.24500
C1767       C  0.21711513  0.96484017  0.09283980     0.40100
C1768       C  0.23277956  0.95258740  0.08581188    -0.26900
O1769       O  0.17954406  0.89240869  0.05060932    -0.58800
H1770       H  0.15472627  0.91820279  0.06601256     0.15800
O1771       O  0.22977716  0.98867935  0.10657735    -0.60300
H1772       H  0.25444543  0.96189789  0.09167535     0.14200
H1773       H  0.23128622  0.84289624  0.09690711     0.46100
H1774       H  0.16657615  0.87658557  0.06113523     0.41400
H1775       H  0.22708998  0.98181259  0.12317943     0.44900
H1776       H  0.26069547  0.94686426  0.02997294     0.36400
C1777       C  0.15892210  0.61895456  0.03052786    -0.27900
C1778       C  0.18006302  0.63209748  0.01310027     0.01700
C1779       C  0.18808086  0.61571113  0.00004603     0.29800
C1780       C  0.17730163  0.58754000  0.00614232    -0.19700
C1781       C  0.15796115  0.57510821  0.02480769    -0.29100
C1782       C  0.14772782  0.59049813  0.03633194     0.43900
C1783       C  0.19753162  0.66331784  0.01208678     0.05000
O1784       O  0.20826596  0.62772924  0.98264759    -0.57600
H1785       H  0.18538137  0.57583760  0.99723988     0.18000
O1786       O  0.12947467  0.57898900  0.05513366    -0.64300
H1787       H  0.15283723  0.63129596  0.04103870     0.16400
C1788       C  0.18570143  0.68030101  0.00914064     0.28700
C1789       C  0.20283695  0.70975040  0.01142085    -0.25200
C1790       C  0.23156739  0.72235255  0.01723600    -0.24500
C1791       C  0.24351120  0.70538206  0.01905303     0.40100
C1792       C  0.22658340  0.67624683  0.01650804    -0.26900
O1793       O  0.15747065  0.66827931  0.00433088    -0.58800
H1794       H  0.19327620  0.72249560  0.01022762     0.15800
O1795       O  0.27149279  0.71694607  0.02466417    -0.60300
H1796       H  0.23600470  0.66353967  0.01920138     0.14200
H1797       H  0.11041755  0.57158316  0.04827496     0.46100
H1798       H  0.14879284  0.66922382  0.01943278     0.41400
H1799       H  0.28159874  0.72258471  0.00925441     0.44900
H1800       H  0.19760880  0.62481615  0.96773140     0.36400
C1801       C  0.16768327  0.68328327  0.15914241    -0.27900
C1802       C  0.17311596  0.71091451  0.15928565     0.01700
C1803       C  0.16616168  0.72099856  0.17940485     0.29800
C1804       C  0.15564312  0.70413690  0.19967844    -0.19700
C1805       C  0.15241324  0.67728227  0.20038243    -0.29100
C1806       C  0.15732634  0.66639422  0.17944820     0.43900
C1807       C  0.18916621  0.73004779  0.13953746     0.05000
O1808       O  0.17018109  0.74756763  0.17950448    -0.57600
H1809       H  0.15146351  0.71280766  0.21527812     0.18000
O1810       O  0.15389671  0.64007597  0.17898361    -0.64300
H1811       H  0.17294400  0.67533646  0.14365223     0.16400
C1812       C  0.21709933  0.75225476  0.14322253     0.28700
C1813       C  0.23318243  0.76886033  0.12413671    -0.25200
C1814       C  0.22196366  0.76349404  0.10107427    -0.24500
C1815       C  0.19369910  0.74166370  0.09748311     0.40100
C1816       C  0.17757469  0.72497109  0.11667636    -0.26900
O1817       O  0.22927871  0.75707913  0.16526436    -0.58800
H1818       H  0.25491214  0.78535753  0.12726599     0.15800
O1819       O  0.18235511  0.73502769  0.07511271    -0.60300
H1820       H  0.15622510  0.70761071  0.11364181     0.14200
H1821       H  0.13358311  0.62697197  0.17553816     0.46100
H1822       H  0.23787571  0.74524456  0.16596106     0.41400
H1823       H  0.17210503  0.74518638  0.07327752     0.44900
H1824       H  0.18705368  0.75906845  0.18956106     0.36400
C1825       C  0.35943032  0.87750231  0.14434771    -0.27900
C1826       C  0.37325800  0.86362292  0.15193974     0.01700
C1827       C  0.37336552  0.84332964  0.13712900     0.29800
C1828       C  0.35954655  0.83681666  0.11528972    -0.19700
C1829       C  0.34537848  0.85031753  0.10753552    -0.29100
C1830       C  0.34566108  0.87109941  0.12219357     0.43900
C1831       C  0.38680651  0.86908171  0.17559607     0.05000
O1832       O  0.38581891  0.82871261  0.14442486    -0.57600
H1833       H  0.35966839  0.82073393  0.10447964     0.18000
O1834       O  0.33207726  0.88475546  0.11537272    -0.64300
H1835       H  0.35912780  0.89310284  0.15568359     0.16400
C1836       C  0.41628154  0.88143682  0.17748239     0.28700
C1837       C  0.42829004  0.88006377  0.19893727    -0.25200
C1838       C  0.41115424  0.86628710  0.21862285    -0.24500
C1839       C  0.38192287  0.85569466  0.21727276     0.40100
C1840       C  0.36993003  0.85728886  0.19585794    -0.26900
O1841       O  0.43320519  0.89274628  0.15788940    -0.58800
H1842       H  0.45069445  0.88773445  0.19962394     0.15800
O1843       O  0.36464185  0.84174896  0.23620384    -0.60300
H1844       H  0.34720686  0.84743666  0.19458775     0.14200
H1845       H  0.31250261  0.87291050  0.12141157     0.46100
H1846       H  0.43799522  0.91260304  0.15730612     0.41400
H1847       H  0.36686316  0.85677285  0.24713793     0.44900
H1848       H  0.40456224  0.83815157  0.13657076     0.36400
C1849       C  0.37086354  0.78153437  0.99343572    -0.27900
C1850       C  0.39742760  0.79390688  0.00437037     0.01700
C1851       C  0.40657430  0.81807450  0.01858393     0.29800
C1852       C  0.38781358  0.82715928  0.02407855    -0.19700
C1853       C  0.35983820  0.81194850  0.01593067    -0.29100
C1854       C  0.35194181  0.79007683  0.99939668     0.43900
C1855       C  0.41182324  0.77758482  0.00558484     0.05000
O1856       O  0.43271558  0.83123711  0.02904642    -0.57600
H1857       H  0.39423802  0.84418250  0.03666647     0.18000
O1858       O  0.32483085  0.77509558  0.99084374    -0.64300
H1859       H  0.36368032  0.76325758  0.98213371     0.16400
C1860       C  0.39685553  0.74985284  0.01461796     0.28700
C1861       C  0.41072940  0.73536534  0.01887590    -0.25200
C1862       C  0.43976783  0.74802960  0.01472826    -0.24500
C1863       C  0.45469844  0.77525682  0.00466961     0.40100
C1864       C  0.44067473  0.78990034  0.00017632    -0.26900
O1865       O  0.36886666  0.73719456  0.02070274    -0.58800
H1866       H  0.39886691  0.71444481  0.02656877     0.15800
O1867       O  0.48314169  0.78829295  0.00038367    -0.60300
H1868       H  0.45249782  0.81118244  0.99324280     0.14200
H1869       H  0.32618977  0.78071669  0.97396946     0.46100
H1870       H  0.36877366  0.74343196  0.03717770     0.41400
H1871       H  0.49234325  0.79764597  0.01552932     0.44900
H1872       H  0.42994260  0.82148219  0.04444928     0.36400
C1873       C  0.50238107  0.84601893  0.38041575    -0.27900
C1874       C  0.48574628  0.85029910  0.39652590     0.01700
C1875       C  0.46599593  0.85691656  0.38808076     0.29800
C1876       C  0.46311332  0.85921298  0.36364549    -0.19700
C1877       C  0.47976140  0.85490394  0.34734555    -0.29100
C1878       C  0.49944689  0.84808270  0.35602544     0.43900
C1879       C  0.48871852  0.84699294  0.42210233     0.05000
O1880       O  0.44917240  0.86077888  0.40355739    -0.57600
H1881       H  0.44767542  0.86418245  0.35746203     0.18000
O1882       O  0.51564505  0.84289081  0.34090651    -0.64300
H1883       H  0.51756456  0.84079240  0.38681051     0.16400
C1884       C  0.48158756  0.82062482  0.43142057     0.28700
C1885       C  0.48477375  0.81778271  0.45565269    -0.25200
C1886       C  0.49523412  0.84108621  0.47093498    -0.24500
C1887       C  0.50263247  0.86764011  0.46145033     0.40100
C1888       C  0.49931640  0.87038581  0.43716444    -0.26900
O1889       O  0.47050531  0.79731240  0.41706807    -0.58800
H1890       H  0.47860021  0.79712660  0.46252670     0.15800
O1891       O  0.51388223  0.89117588  0.47554881    -0.60300
H1892       H  0.50524924  0.89086819  0.43001269     0.14200
H1893       H  0.50428669  0.82235604  0.33766376     0.46100
H1894       H  0.48651254  0.79469327  0.41343746     0.41400
H1895       H  0.49788717  0.89379356  0.47928444     0.44900
H1896       H  0.43294001  0.84158259  0.40687672     0.36400
C1897       C  0.62434242  0.90743475  0.55201631    -0.27900
C1898       C  0.62899163  0.91975379  0.57450431     0.01700
C1899       C  0.60626158  0.91813990  0.58707584     0.29800
C1900       C  0.57896265  0.90320841  0.57744389    -0.19700
C1901       C  0.57394860  0.88916942  0.55556024    -0.29100
C1902       C  0.59709699  0.89198327  0.54261354     0.43900
C1903       C  0.65718203  0.93158133  0.58531825     0.05000
O1904       O  0.61051737  0.93075487  0.60885783    -0.57600
H1905       H  0.56151964  0.90132009  0.58772108     0.18000
O1906       O  0.59330519  0.87939737  0.52086653    -0.64300
H1907       H  0.64176815  0.90864392  0.54219376     0.16400
C1908       C  0.66168057  0.91640002  0.60294172     0.28700
C1909       C  0.68910289  0.92551491  0.61066783    -0.25200
C1910       C  0.71254340  0.94960191  0.60078661    -0.24500
C1911       C  0.70780061  0.96516313  0.58345793     0.40100
C1912       C  0.68029552  0.95598962  0.57581636    -0.26900
O1913       O  0.63949646  0.89186754  0.61192161    -0.58800
H1914       H  0.69202493  0.91304631  0.62385875     0.15800
O1915       O  0.72987558  0.98844000  0.57285234    -0.60300
H1916       H  0.67704567  0.96747726  0.56188141     0.14200
H1917       H  0.59372108  0.86201377  0.52395539     0.46100
H1918       H  0.63713402  0.87685204  0.60090255     0.41400
H1919       H  0.73272811  0.00466890  0.58247722     0.44900
H1920       H  0.60548651  0.91554076  0.62059583     0.36400
C1921       C  0.50747925  0.68486273  0.87612578    -0.27900
C1922       C  0.48824163  0.66478557  0.89207285     0.01700
C1923       C  0.46633895  0.63862868  0.88352481     0.29800
C1924       C  0.46340857  0.63329840  0.85903696    -0.19700
C1925       C  0.48221367  0.65384311  0.84294538    -0.29100
C1926       C  0.50480919  0.67955617  0.85182389     0.43900
C1927       C  0.49103262  0.67203045  0.91749541     0.05000
O1928       O  0.44672535  0.61898309  0.89883213    -0.57600
H1929       H  0.44578740  0.61357090  0.85261760     0.18000
O1930       O  0.52415475  0.70003045  0.83689545    -0.64300
H1931       H  0.52458073  0.70491692  0.88258175     0.16400
C1932       C  0.49647803  0.65670844  0.93425682     0.28700
C1933       C  0.49890986  0.66392392  0.95822761    -0.25200
C1934       C  0.49650226  0.68671954  0.96578326    -0.24500
C1935       C  0.49180256  0.70254613  0.94893314     0.40100
C1936       C  0.48922320  0.69520928  0.92491820    -0.26900
O1937       O  0.49946494  0.63468806  0.92738238    -0.58800
H1938       H  0.50248834  0.65151736  0.97102543     0.15800
O1939       O  0.48853782  0.72440032  0.95581524    -0.60300
H1940       H  0.48521029  0.70725897  0.91207607     0.14200
H1941       H  0.53879516  0.69511411  0.83428363     0.46100
H1942       H  0.51966760  0.64340688  0.92305423     0.41400
H1943       H  0.46827956  0.71553653  0.96003349     0.44900
H1944       H  0.45132030  0.60396595  0.89994474     0.36400
C1945       C  0.53616356  0.78359501  0.63740635    -0.27900
C1946       C  0.52380897  0.75424488  0.63914805     0.01700
C1947       C  0.51155606  0.73736589  0.61890474     0.29800
C1948       C  0.50900181  0.74952192  0.59808407    -0.19700
C1949       C  0.51903404  0.77842908  0.59710034    -0.29100
C1950       C  0.53400387  0.79578688  0.61639656     0.43900
C1951       C  0.51756335  0.74097061  0.66282092     0.05000
O1952       O  0.49864341  0.70859698  0.62026722    -0.57600
H1953       H  0.49702944  0.73600114  0.58336124     0.18000
O1954       O  0.54330733  0.82400535  0.61593661    -0.64300
H1955       H  0.54537059  0.79672440  0.65295893     0.16400
C1956       C  0.52618680  0.72215977  0.66960608     0.28700
C1957       C  0.51600611  0.70682054  0.69076889    -0.25200
C1958       C  0.49680731  0.70968027  0.70498904    -0.24500
C1959       C  0.48902985  0.72922991  0.69851604     0.40100
C1960       C  0.49966141  0.74491216  0.67774704    -0.26900
O1961       O  0.54368399  0.71791589  0.65531388    -0.58800
H1962       H  0.52216151  0.69184413  0.69556242     0.15800
O1963       O  0.47110186  0.73324584  0.71244405    -0.60300
H1964       H  0.49278878  0.75926439  0.67268443     0.14200
H1965       H  0.56306720  0.83332635  0.61016689     0.46100
H1966       H  0.56300050  0.73378536  0.65885976     0.41400
H1967       H  0.45223227  0.72178859  0.70501429     0.44900
H1968       H  0.51198630  0.70411702  0.61263465     0.36400
C1969       C  0.11038252  0.65638706  0.43621416    -0.27900
C1970       C  0.13416611  0.66933793  0.42136578     0.01700
C1971       C  0.16042486  0.68981241  0.43106681     0.29800
C1972       C  0.16267773  0.69635122  0.45528776    -0.19700
C1973       C  0.13909331  0.68248541  0.47034589    -0.29100
C1974       C  0.11266734  0.66258545  0.46046463     0.43900
C1975       C  0.13125151  0.66118614  0.39589593     0.05000
O1976       O  0.18419022  0.70310188  0.41717184    -0.57600
H1977       H  0.18317989  0.71171957  0.46241347     0.18000
O1978       O  0.08875651  0.64942084  0.47420858    -0.64300
H1979       H  0.08985658  0.64125199  0.42898478     0.16400
C1980       C  0.11766516  0.63262073  0.38898901     0.28700
C1981       C  0.11474103  0.62539241  0.36488880    -0.25200
C1982       C  0.12514692  0.64628610  0.34724598    -0.24500
C1983       C  0.13904487  0.67488205  0.35420082     0.40100
C1984       C  0.14193798  0.68206760  0.37827036    -0.26900
O1985       O  0.10728344  0.61155869  0.40566397    -0.58800
H1986       H  0.10410984  0.60333256  0.36000307     0.15800
O1987       O  0.15079773  0.69609280  0.33766831    -0.60300
H1988       H  0.15235328  0.70411744  0.38314785     0.14200
H1989       H  0.08612243  0.63080055  0.47823287     0.46100
H1990       H  0.12322563  0.60888584  0.40943028     0.41400
H1991       H  0.13684359  0.70198253  0.33546233     0.44900
H1992       H  0.19255000  0.69107991  0.41805910     0.36400
C1993       C  0.35170282  0.79375547  0.54936540    -0.27900
C1994       C  0.34133611  0.78495064  0.52634673     0.01700
C1995       C  0.36014235  0.78829573  0.50801921     0.29800
C1996       C  0.38899508  0.79995228  0.51310837    -0.19700
C1997       C  0.39896646  0.80749181  0.53648684    -0.29100
C1998       C  0.38011508  0.80458373  0.55456297     0.43900
C1999       C  0.31051624  0.77119695  0.52275933     0.05000
O2000       O  0.35053326  0.78030951  0.48525598    -0.57600
H2001       H  0.40325514  0.80178667  0.49908775     0.18000
O2002       O  0.38935957  0.81230474  0.57745936    -0.64300
H2003       H  0.33742497  0.79130674  0.56360003     0.16400
C2004       C  0.29351430  0.74167250  0.52098286     0.28700
C2005       C  0.26431158  0.72824844  0.52484264    -0.25200
C2006       C  0.25167449  0.74401228  0.53003347    -0.24500
C2007       C  0.26852457  0.77367529  0.53010478     0.40100
C2008       C  0.29769589  0.78700528  0.52652199    -0.26900
O2009       O  0.30555961  0.72568220  0.51771120    -0.58800
H2010       H  0.25167721  0.70542781  0.52467708     0.15800
O2011       O  0.25710772  0.78978523  0.53558205    -0.60300
H2012       H  0.31063737  0.80970871  0.52830225     0.14200
H2013       H  0.38413342  0.79448986  0.58578601     0.46100
H2014       H  0.30279436  0.72055598  0.50064646     0.41400
H2015       H  0.25853551  0.79182774  0.55310267     0.44900
H2016       H  0.34951720  0.76210197  0.48285965     0.36400
C2017       C  0.06261729  0.73304138  0.54473841    -0.27900
C2018       C  0.05450609  0.73064713  0.56864078     0.01700
C2019       C  0.06054140  0.71456865  0.58421821     0.29800
C2020       C  0.07596627  0.70261719  0.57612342    -0.19700
C2021       C  0.08600878  0.70697643  0.55271471    -0.29100
C2022       C  0.07840411  0.72147291  0.53676333     0.43900
C2023       C  0.04265839  0.74754547  0.57758799     0.05000
O2024       O  0.05165853  0.71074438  0.60741086    -0.57600
H2025       H  0.08154344  0.69139255  0.58856968     0.18000
O2026       O  0.08721799  0.72539439  0.51357534    -0.64300
H2027       H  0.05799553  0.74520434  0.53252428     0.16400
C2028       C  0.05713008  0.76814800  0.59514737     0.28700
C2029       C  0.04688207  0.78513519  0.60268823    -0.25200
C2030       C  0.02249193  0.78268748  0.59258530    -0.24500
C2031       C  0.00809774  0.76220595  0.57474243     0.40100
C2032       C  0.01818108  0.74478789  0.56745739    -0.26900
O2033       O  0.08200532  0.77262226  0.60446875    -0.58800
H2034       H  0.05866920  0.80086128  0.61615527     0.15800
O2035       O  0.98448125  0.75925090  0.56402765    -0.60300
H2036       H  0.00708991  0.72933912  0.55362991     0.14200
H2037       H  0.07484365  0.70697016  0.50572171     0.46100
H2038       H  0.09695953  0.78645183  0.59368777     0.41400
H2039       H  0.99161393  0.77210040  0.55013583     0.44900
H2040       H  0.06909537  0.72077492  0.61711488     0.36400
C2041       C  0.32098955  0.85181226  0.93280453    -0.27900
C2042       C  0.29982468  0.85030933  0.91823882     0.01700
C2043       C  0.27429252  0.84489836  0.92859413     0.29800
C2044       C  0.27023053  0.84086024  0.95327443    -0.19700
C2045       C  0.29155093  0.84236891  0.96789237    -0.29100
C2046       C  0.31703726  0.84773990  0.95726580     0.43900
C2047       C  0.30418133  0.85207627  0.89217220     0.05000
O2048       O  0.25320243  0.84337304  0.91473323    -0.57600
H2049       H  0.25049504  0.83668294  0.96097400     0.18000
O2050       O  0.33806466  0.84824053  0.97051575    -0.64300
H2051       H  0.34044106  0.85525215  0.92504254     0.16400
C2052       C  0.32715439  0.87603866  0.88155160     0.28700
C2053       C  0.33306821  0.87575853  0.85734949    -0.25200
C2054       C  0.31630868  0.85170329  0.84348252    -0.24500
C2055       C  0.29321503  0.82782356  0.85415354     0.40100
C2056       C  0.28725015  0.82821277  0.87823329    -0.26900
O2057       O  0.34356850  0.89996012  0.89464243    -0.58800
H2058       H  0.35060790  0.89443012  0.84937721     0.15800
O2059       O  0.27676056  0.80364975  0.84135498    -0.60300
H2060       H  0.26994021  0.80941537  0.88627453     0.14200
H2061       H  0.33405679  0.82863579  0.97014647     0.46100
H2062       H  0.36112567  0.89998370  0.89811225     0.41400
H2063       H  0.28720511  0.79355791  0.84144059     0.44900
H2064       H  0.25638024  0.86268774  0.91485873     0.36400
C2065       C  0.45877716  0.84900818  0.65876426    -0.27900
C2066       C  0.45708852  0.87330131  0.65798359     0.01700
C2067       C  0.46559900  0.88996230  0.63737892     0.29800
C2068       C  0.47313053  0.88075424  0.61708090    -0.19700
C2069       C  0.47191939  0.85476462  0.61702296    -0.29100
C2070       C  0.46619251  0.83969307  0.63857461     0.43900
C2071       C  0.44009052  0.87662655  0.67635223     0.05000
O2072       O  0.46540771  0.91458038  0.63669517    -0.57600
H2073       H  0.47828606  0.89319497  0.60100552     0.18000
O2074       O  0.46539239  0.81460392  0.63972471    -0.64300
H2075       H  0.45208342  0.83594944  0.67455856     0.16400
C2076       C  0.41185628  0.86769075  0.67119094     0.28700
C2077       C  0.39317986  0.86338823  0.68955103    -0.25200
C2078       C  0.40210971  0.86783997  0.71331779    -0.24500
C2079       C  0.43102229  0.87918165  0.71831112     0.40100
C2080       C  0.44978319  0.88323569  0.69981958    -0.26900
O2081       O  0.40162104  0.86008993  0.64851949    -0.58800
H2082       H  0.37120079  0.85496043  0.68519211     0.15800
O2083       O  0.44085762  0.88476734  0.74119224    -0.60300
H2084       H  0.47150918  0.89002845  0.70393309     0.14200
H2085       H  0.48486700  0.81975625  0.64397910     0.46100
H2086       H  0.39930441  0.87560451  0.64262279     0.41400
H2087       H  0.43935795  0.86715209  0.74694151     0.44900
H2088       H  0.44844931  0.91022986  0.62736223     0.36400
C2089       C  0.44683651  0.76249179  0.78713384    -0.27900
C2090       C  0.42223832  0.75179101  0.80102336     0.01700
C2091       C  0.41076487  0.72483794  0.81125970     0.29800
C2092       C  0.42209492  0.70811150  0.80564025    -0.19700
C2093       C  0.44526998  0.71796030  0.79018341    -0.29100
C2094       C  0.45840139  0.74579358  0.78170538     0.43900
C2095       C  0.40636759  0.76678642  0.80136385     0.05000
O2096       O  0.38736887  0.71394472  0.82557457    -0.57600
H2097       H  0.41176368  0.68671746  0.81236640     0.18000
O2098       O  0.48113651  0.75602145  0.76666217    -0.64300
H2099       H  0.45586982  0.78301803  0.77887915     0.16400
C2100       C  0.41965449  0.79582821  0.80647012     0.28700
C2101       C  0.40526001  0.81020876  0.80255054    -0.25200
C2102       C  0.37786972  0.79604842  0.79304994    -0.24500
C2103       C  0.36398769  0.76671323  0.78946635     0.40100
C2104       C  0.37816741  0.75236422  0.79361307    -0.26900
O2105       O  0.44678576  0.81032161  0.81498514    -0.58800
H2106       H  0.41619161  0.83276005  0.80546150     0.15800
O2107       O  0.33695834  0.75207634  0.78073631    -0.60300
H2108       H  0.36754748  0.73011233  0.78940013     0.14200
H2109       H  0.47466321  0.75951760  0.75134702     0.46100
H2110       H  0.45852597  0.82261378  0.80174412     0.41400
H2111       H  0.32459119  0.74626237  0.79492988     0.44900
H2112       H  0.39481672  0.72091735  0.84172640     0.36400
C2113       C  0.19689504  0.77519311  0.64261127    -0.27900
C2114       C  0.22257003  0.80064494  0.63924735     0.01700
C2115       C  0.23158160  0.81070773  0.61599144     0.29800
C2116       C  0.21660515  0.79383279  0.59654286    -0.19700
C2117       C  0.19279829  0.76697898  0.60016711    -0.29100
C2118       C  0.18206776  0.75832836  0.62322170     0.43900
C2119       C  0.24226182  0.81259114  0.65953780     0.05000
O2120       O  0.25645468  0.83564057  0.61218493    -0.57600
H2121       H  0.22514883  0.80051391  0.57883775     0.18000
O2122       O  0.15899082  0.73197162  0.62714801    -0.64300
H2123       H  0.18983299  0.76697610  0.66034532     0.16400
C2124       C  0.23448671  0.81989121  0.68091004     0.28700
C2125       C  0.25150201  0.82606632  0.70111838    -0.25200
C2126       C  0.27580292  0.82414202  0.70043424    -0.24500
C2127       C  0.28411447  0.81797570  0.67879598     0.40100
C2128       C  0.26747275  0.81238816  0.65857181    -0.26900
O2129       O  0.21015280  0.82064417  0.68222258    -0.58800
H2130       H  0.24488286  0.83088282  0.71764045     0.15800
O2131       O  0.30809732  0.81662720  0.67737243    -0.60300
H2132       H  0.27353520  0.80639559  0.64234957     0.14200
H2133       H  0.14245667  0.73333615  0.62257301     0.46100
H2134       H  0.19647896  0.80335036  0.69099005     0.41400
H2135       H  0.32310738  0.83571563  0.67224302     0.44900
H2136       H  0.25137517  0.85033297  0.61269008     0.36400
C2137       C  0.11173749  0.46026628  0.87660033    -0.27900
C2138       C  0.12092463  0.48404641  0.89106374     0.01700
C2139       C  0.12838763  0.50997660  0.88035022     0.29800
C2140       C  0.12624806  0.51171209  0.85566222    -0.19700
C2141       C  0.11685895  0.48790164  0.84113275    -0.29100
C2142       C  0.10957277  0.46195338  0.85193811     0.43900
C2143       C  0.12304248  0.48162124  0.91722600     0.05000
O2144       O  0.13934397  0.53406202  0.89374564    -0.57600
H2145       H  0.13255058  0.53198630  0.84784973     0.18000
O2146       O  0.10048583  0.43806126  0.83864132    -0.64300
H2147       H  0.10599376  0.44017571  0.88450609     0.16400
C2148       C  0.10954320  0.49044190  0.93316112     0.28700
C2149       C  0.11276808  0.48907269  0.95767847    -0.25200
C2150       C  0.12899012  0.47844798  0.96700110    -0.24500
C2151       C  0.14163684  0.46858849  0.95098457     0.40100
C2152       C  0.13852505  0.47016885  0.92640683    -0.26900
O2153       O  0.09290834  0.50026677  0.92498145    -0.58800
H2154       H  0.10253049  0.49651750  0.96942571     0.15800
O2155       O  0.15691941  0.45716727  0.95904270    -0.60300
H2156       H  0.14869638  0.46285370  0.91443934     0.14200
H2157       H  0.07970186  0.42919836  0.83758524     0.46100
H2158       H  0.07424346  0.48317218  0.92181795     0.41400
H2159       H  0.17688237  0.47290263  0.95883441     0.44900
H2160       H  0.12533346  0.54005831  0.89281005     0.36400
C2161       C  0.08803586  0.57948332  0.69458287    -0.27900
C2162       C  0.09216559  0.57443087  0.67090544     0.01700
C2163       C  0.09657100  0.55208796  0.66590228     0.29800
C2164       C  0.09944962  0.53708468  0.68452724    -0.19700
C2165       C  0.09735613  0.54355997  0.70817574    -0.29100
C2166       C  0.09041471  0.56406412  0.71317788     0.43900
C2167       C  0.09732916  0.59558192  0.65232524     0.05000
O2168       O  0.10144900  0.54698116  0.64310927    -0.57600
H2169       H  0.10515743  0.52156105  0.68053493     0.18000
O2170       O  0.08928020  0.57149907  0.73617564    -0.64300
H2171       H  0.08481381  0.59667749  0.69873572     0.16400
C2172       C  0.08351858  0.58778956  0.63022468     0.28700
C2173       C  0.09322475  0.60724840  0.61151988    -0.25200
C2174       C  0.11657396  0.63480036  0.61449231    -0.24500
C2175       C  0.12853649  0.64325063  0.63732356     0.40100
C2176       C  0.11900125  0.62367217  0.65589870    -0.26900
O2177       O  0.06139260  0.56087596  0.62637044    -0.58800
H2178       H  0.08319806  0.60026820  0.59433673     0.15800
O2179       O  0.15077339  0.67002742  0.64141005    -0.60300
H2180       H  0.12975367  0.63011765  0.67284688     0.14200
H2181       H  0.06965095  0.55814577  0.74144031     0.46100
H2182       H  0.04479376  0.56015912  0.63379041     0.41400
H2183       H  0.14219642  0.68028177  0.64835731     0.44900
H2184       H  0.08436933  0.52885488  0.63859451     0.36400
C2185       C  0.22067191  0.64669015  0.77733050    -0.27900
C2186       C  0.20571110  0.66019172  0.78245324     0.01700
C2187       C  0.17624324  0.64359912  0.78546756     0.29800
C2188       C  0.16216388  0.61420919  0.78278862    -0.19700
C2189       C  0.17697586  0.60067322  0.77693700    -0.29100
C2190       C  0.20665233  0.61733763  0.77451021     0.43900
C2191       C  0.22106362  0.69160422  0.78338601     0.05000
O2192       O  0.16092279  0.65595404  0.79067109    -0.57600
H2193       H  0.13939238  0.60208931  0.78460884     0.18000
O2194       O  0.22225636  0.60525905  0.76933732    -0.64300
H2195       H  0.24333120  0.65906473  0.77473916     0.16400
C2196       C  0.24504088  0.70691268  0.79790187     0.28700
C2197       C  0.26178942  0.73630756  0.79583604    -0.25200
C2198       C  0.25513630  0.75095365  0.77935620    -0.24500
C2199       C  0.23021448  0.73598813  0.76593748     0.40100
C2200       C  0.21330515  0.70651820  0.76806579    -0.26900
O2201       O  0.25243196  0.69322383  0.81393685    -0.58800
H2202       H  0.28093270  0.74759782  0.80627754     0.15800
O2203       O  0.22334841  0.74964643  0.74943964    -0.60300
H2204       H  0.19504112  0.69514007  0.75665693     0.14200
H2205       H  0.22558318  0.60766564  0.75196942     0.46100
H2206       H  0.26959028  0.69436760  0.80730627     0.41400
H2207       H  0.23396735  0.75067455  0.73490959     0.44900
H2208       H  0.15977837  0.65577517  0.80824079     0.36400
C2209       C  0.31891223  0.54516116  0.79372958    -0.27900
C2210       C  0.30256303  0.55769136  0.79164250     0.01700
C2211       C  0.31614582  0.58713997  0.78916267     0.29800
C2212       C  0.34559678  0.60347255  0.78751269    -0.19700
C2213       C  0.36193988  0.59086962  0.78852527    -0.29100
C2214       C  0.34848003  0.56159098  0.79229796     0.43900
C2215       C  0.27157949  0.54002824  0.78857744     0.05000
O2216       O  0.30069033  0.59992368  0.78688760    -0.57600
H2217       H  0.35564901  0.62591908  0.78427622     0.18000
O2218       O  0.36383293  0.54859115  0.79282895    -0.64300
H2219       H  0.30865354  0.52247567  0.79534595     0.16400
C2220       C  0.26039603  0.52506822  0.76727166     0.28700
C2221       C  0.23167847  0.51299071  0.76223415    -0.25200
C2222       C  0.21370735  0.51526456  0.77837742    -0.24500
C2223       C  0.22442098  0.52857097  0.80037204     0.40100
C2224       C  0.25334123  0.54118481  0.80524433    -0.26900
O2225       O  0.27770724  0.52363367  0.75064065    -0.58800
H2226       H  0.22363091  0.50288560  0.74520532     0.15800
O2227       O  0.20741177  0.53172715  0.81617001    -0.60300
H2228       H  0.26178117  0.55293633  0.82156141     0.14200
H2229       H  0.36535017  0.54419276  0.77602906     0.46100
H2230       H  0.28359082  0.54005186  0.74005327     0.41400
H2231       H  0.19823091  0.51415885  0.82571208     0.44900
H2232       H  0.29808994  0.60081640  0.76956031     0.36400
C2233       C  0.29796468  0.46552572  0.37428020    -0.27900
C2234       C  0.30962014  0.48910071  0.38915504     0.01700
C2235       C  0.32905008  0.51584903  0.37992980     0.29800
C2236       C  0.33635963  0.51885074  0.35586958    -0.19700
C2237       C  0.32428128  0.49534920  0.34066711    -0.29100
C2238       C  0.30519287  0.46842002  0.35022204     0.43900
C2239       C  0.30193074  0.48550072  0.41447545     0.05000
O2240       O  0.34094892  0.53915817  0.39431337    -0.57600
H2241       H  0.35097937  0.53972773  0.34899958     0.18000
O2242       O  0.29332563  0.44475957  0.33625802    -0.64300
H2243       H  0.28323185  0.44480364  0.38138721     0.16400
C2244       C  0.27751575  0.48479605  0.42238990     0.28700
C2245       C  0.27116773  0.48223271  0.44667742    -0.25200
C2246       C  0.28881395  0.47995293  0.46331479    -0.24500
C2247       C  0.31292802  0.47985051  0.45500734     0.40100
C2248       C  0.31935454  0.48285391  0.43082215    -0.26900
O2249       O  0.26019641  0.48738378  0.40656225    -0.58800
H2250       H  0.25257067  0.48233084  0.45247476     0.15800
O2251       O  0.33083192  0.47746452  0.47031082    -0.60300
H2252       H  0.33810781  0.48319369  0.42477514     0.14200
H2253       H  0.30736644  0.43877237  0.33592786     0.46100
H2254       H  0.24579314  0.46779343  0.40205065     0.41400
H2255       H  0.32306568  0.45691697  0.47185010     0.44900
H2256       H  0.32736484  0.54572733  0.39432029     0.36400
C2257       C  0.18907653  0.54015454  0.52076421    -0.27900
C2258       C  0.20605070  0.56931799  0.51702735     0.01700
C2259       C  0.23499560  0.58117944  0.51202766     0.29800
C2260       C  0.24708141  0.56453780  0.51327968    -0.19700
C2261       C  0.23063633  0.53584945  0.51913583    -0.29100
C2262       C  0.20115997  0.52337285  0.52183081     0.43900
C2263       C  0.19495577  0.58786266  0.52268671     0.05000
O2264       O  0.25210423  0.60952111  0.50775380    -0.57600
H2265       H  0.26970194  0.57444919  0.51093010     0.18000
O2266       O  0.18432155  0.49537009  0.52750211    -0.64300
H2267       H  0.16683697  0.53073990  0.52478400     0.16400
C2268       C  0.17059728  0.58486767  0.51193210     0.28700
C2269       C  0.16080466  0.60275364  0.51857083    -0.25200
C2270       C  0.17482169  0.62338274  0.53619603    -0.24500
C2271       C  0.19936765  0.62626222  0.54675537     0.40100
C2272       C  0.20888642  0.60845560  0.54016694    -0.26900
O2273       O  0.15681010  0.56516968  0.49448071    -0.58800
H2274       H  0.14213748  0.60031716  0.51005086     0.15800
O2275       O  0.21441655  0.64641540  0.56362589    -0.60300
H2276       H  0.22735770  0.61070303  0.54894710     0.14200
H2277       H  0.18457876  0.49459729  0.54508561     0.46100
H2278       H  0.13928718  0.54999212  0.50203368     0.41400
H2279       H  0.22902034  0.66302015  0.55467008     0.44900
H2280       H  0.24774899  0.61230920  0.49127850     0.36400
C2281       C  0.40661876  0.57286862  0.66615607    -0.27900
C2282       C  0.38274087  0.54617064  0.67039110     0.01700
C2283       C  0.37504859  0.53657635  0.69387303     0.29800
C2284       C  0.39026379  0.55436228  0.71277739    -0.19700
C2285       C  0.41265337  0.58195522  0.70851245    -0.29100
C2286       C  0.42137778  0.59089317  0.68502079     0.43900
C2287       C  0.36402728  0.53064876  0.65027142     0.05000
O2288       O  0.35240813  0.51007672  0.69838731    -0.57600
H2289       H  0.38337620  0.54715121  0.73076848     0.18000
O2290       O  0.44404159  0.61730103  0.68033960    -0.64300
H2291       H  0.41277655  0.58044194  0.64813559     0.16400
C2292       C  0.33654961  0.52600434  0.64953759     0.28700
C2293       C  0.32059764  0.51591579  0.62887527    -0.25200
C2294       C  0.33190379  0.51121961  0.60827591    -0.24500
C2295       C  0.35897542  0.51460132  0.60935150     0.40100
C2296       C  0.37478078  0.52420699  0.63031514    -0.26900
O2297       O  0.32582705  0.53324537  0.66832859    -0.58800
H2298       H  0.29990356  0.51351584  0.62863984     0.15800
O2299       O  0.37070674  0.50977029  0.58985536    -0.60300
H2300       H  0.39600160  0.52789748  0.63066199     0.14200
H2301       H  0.43580400  0.62885409  0.67595646     0.46100
H2302       H  0.33239903  0.55344456  0.66589048     0.41400
H2303       H  0.38211950  0.52838722  0.58201383     0.44900
H2304       H  0.33810874  0.51295650  0.70634526     0.36400
C2305       C  0.16363485  0.43623618  0.67958850    -0.27900
C2306       C  0.16031601  0.44536069  0.65725383     0.01700
C2307       C  0.14536437  0.45947074  0.65553620     0.29800
C2308       C  0.13669869  0.46693014  0.67612839    -0.19700
C2309       C  0.14271587  0.46048160  0.69863670    -0.29100
C2310       C  0.15473600  0.44347816  0.70022725     0.43900
C2311       C  0.17760637  0.44606471  0.63690575     0.05000
O2312       O  0.14131319  0.46824717  0.63393505    -0.57600
H2313       H  0.12688374  0.47941066  0.67449235     0.18000
O2314       O  0.16064264  0.43635169  0.72183798    -0.64300
H2315       H  0.17503201  0.42528130  0.68114359     0.16400
C2316       C  0.20721842  0.46307751  0.63838560     0.28700
C2317       C  0.22355560  0.46991338  0.61785603    -0.25200
C2318       C  0.21095789  0.45946820  0.59568361    -0.24500
C2319       C  0.18165933  0.44032206  0.59440227     0.40100
C2320       C  0.16504763  0.43405352  0.61495286    -0.26900
O2321       O  0.22016939  0.47542196  0.65944200    -0.58800
H2322       H  0.24615936  0.48439585  0.61913693     0.15800
O2323       O  0.16883222  0.42970056  0.57296292    -0.60300
H2324       H  0.14228176  0.42095896  0.61357997     0.14200
H2325       H  0.14336090  0.41831972  0.72619337     0.46100
H2326       H  0.22696099  0.46333918  0.66587005     0.41400
H2327       H  0.16900387  0.41204462  0.57090479     0.44900
H2328       H  0.15792355  0.48749210  0.63167755     0.36400
C2329       C  0.39688954  0.67889348  0.52556382    -0.27900
C2330       C  0.41225508  0.66642372  0.51880894     0.01700
C2331       C  0.44131281  0.68359777  0.51423765     0.29800
C2332       C  0.45489342  0.71287616  0.51754224    -0.19700
C2333       C  0.43984195  0.72533357  0.52581862    -0.29100
C2334       C  0.41030366  0.70799567  0.52900289     0.43900
C2335       C  0.39811454  0.63541180  0.52030960     0.05000
O2336       O  0.45672947  0.67188165  0.50731215    -0.57600
H2337       H  0.47750566  0.72560656  0.51479931     0.18000
O2338       O  0.39445988  0.71889556  0.53683151    -0.64300
H2339       H  0.37450783  0.66576400  0.52932565     0.16400
C2340       C  0.39681913  0.62296199  0.54237268     0.28700
C2341       C  0.37740361  0.59431500  0.54594413    -0.25200
C2342       C  0.35968017  0.57751646  0.52749514    -0.24500
C2343       C  0.36291269  0.58929420  0.50472831     0.40100
C2344       C  0.38178350  0.61832080  0.50132994    -0.26900
O2345       O  0.41267824  0.63917834  0.56114152    -0.58800
H2346       H  0.37520670  0.58543798  0.56351819     0.15800
O2347       O  0.34580804  0.57332622  0.48640000    -0.60300
H2348       H  0.38252083  0.62775409  0.48430437     0.14200
H2349       H  0.38815106  0.72403135  0.52223925     0.46100
H2350       H  0.43036231  0.63878108  0.56047410     0.41400
H2351       H  0.35539352  0.56411105  0.47933079     0.44900
H2352       H  0.46382265  0.66829591  0.52224190     0.36400
C2353       C  0.20953604  0.31291529  0.59166627    -0.27900
C2354       C  0.22365757  0.31805708  0.56995919     0.01700
C2355       C  0.22341481  0.29576978  0.55788175     0.29800
C2356       C  0.20903406  0.26858440  0.56767640    -0.19700
C2357       C  0.19420304  0.26323193  0.58919601    -0.29100
C2358       C  0.19478268  0.28582651  0.60125987     0.43900
C2359       C  0.23752615  0.34677857  0.56002913     0.05000
O2360       O  0.23729080  0.30043041  0.53665339    -0.57600
H2361       H  0.20861593  0.25151029  0.55798781     0.18000
O2362       O  0.18051609  0.28165139  0.62221759    -0.64300
H2363       H  0.20944235  0.32995762  0.60097194     0.16400
C2364       C  0.22538081  0.35295753  0.54089045     0.28700
C2365       C  0.23622841  0.38096349  0.53407675    -0.25200
C2366       C  0.25908356  0.40323531  0.54629715    -0.24500
C2367       C  0.27176860  0.39682031  0.56502716     0.40100
C2368       C  0.26083244  0.36876184  0.57180858    -0.26900
O2369       O  0.20210630  0.33187929  0.52945230    -0.58800
H2370       H  0.22609612  0.38526354  0.51963061     0.15800
O2371       O  0.29357784  0.41777380  0.57788900    -0.60300
H2372       H  0.26996531  0.36416958  0.58686247     0.14200
H2373       H  0.19387190  0.28338614  0.63475906     0.46100
H2374       H  0.18567378  0.32915285  0.53877706     0.41400
H2375       H  0.31097547  0.42005942  0.57066775     0.44900
H2376       H  0.22250750  0.29456072  0.52431301     0.36400
C2377       C  0.87679660  0.64133215  0.93474477    -0.27900
C2378       C  0.88762173  0.64649471  0.91157786     0.01700
C2379       C  0.88503072  0.62397374  0.89798491     0.29800
C2380       C  0.87038838  0.59649046  0.90722537    -0.19700
C2381       C  0.85787267  0.59112824  0.92981005    -0.29100
C2382       C  0.86203864  0.61398229  0.94388409     0.43900
C2383       C  0.89996185  0.67526560  0.90166434     0.05000
O2384       O  0.89686808  0.62873114  0.87578077    -0.57600
H2385       H  0.86756903  0.57921118  0.89621166     0.18000
O2386       O  0.85091547  0.60974633  0.96632083    -0.64300
H2387       H  0.87882499  0.65848753  0.94548165     0.16400
C2388       C  0.88790726  0.68030838  0.88168997     0.28700
C2389       C  0.89751848  0.70797215  0.87443508    -0.25200
C2390       C  0.91904527  0.73103266  0.88693913    -0.24500
C2391       C  0.93142337  0.72590253  0.90671515     0.40100
C2392       C  0.92185964  0.69823013  0.91387786    -0.26900
O2393       O  0.86593125  0.65840691  0.86970570    -0.58800
H2394       H  0.88768537  0.71137241  0.85922375     0.15800
O2395       O  0.95222105  0.74771279  0.91970229    -0.60300
H2396       H  0.93107596  0.69467059  0.92944920     0.14200
H2397       H  0.86449760  0.60811085  0.97664552     0.46100
H2398       H  0.84864461  0.65476904  0.87815200     0.41400
H2399       H  0.94210752  0.75213520  0.93183978     0.44900
H2400       H  0.88077509  0.61934125  0.86457197     0.36400
C2401       C  0.84280452  0.46380641  0.78460728    -0.27900
C2402       C  0.84152588  0.45324929  0.80752004     0.01700
C2403       C  0.83916266  0.42684856  0.81018525     0.29800
C2404       C  0.83582978  0.41053316  0.79013993    -0.19700
C2405       C  0.83523579  0.42035458  0.76734873    -0.29100
C2406       C  0.83973455  0.44760070  0.76457912     0.43900
C2407       C  0.83706185  0.46715705  0.82803464     0.05000
O2408       O  0.83697443  0.41551503  0.83229270    -0.57600
H2409       H  0.83226591  0.38954089  0.79248227     0.18000
O2410       O  0.83789493  0.45726250  0.74264517    -0.64300
H2411       H  0.84432123  0.48393733  0.78230992     0.16400
C2412       C  0.85327645  0.47386101  0.84888085     0.28700
C2413       C  0.84526026  0.48268753  0.86909610    -0.25200
C2414       C  0.82119605  0.48514715  0.86883653    -0.24500
C2415       C  0.80634459  0.48047609  0.84731844     0.40100
C2416       C  0.81425264  0.47144524  0.82728405    -0.26900
O2417       O  0.87633950  0.47090069  0.84995758    -0.58800
H2418       H  0.85728162  0.48648008  0.88526975     0.15800
O2419       O  0.78302728  0.48299666  0.84590362    -0.60300
H2420       H  0.80157655  0.46643262  0.81134903     0.14200
H2421       H  0.85749987  0.46765693  0.73647832     0.46100
H2422       H  0.89206909  0.48848798  0.84298889     0.41400
H2423       H  0.79047232  0.50302121  0.84178502     0.44900
H2424       H  0.85500657  0.41610676  0.83475102     0.36400
C2425       C  0.00589124  0.40316552  0.72661657    -0.27900
C2426       C  0.98378229  0.40269035  0.73918130     0.01700
C2427       C  0.98957417  0.41733924  0.76077990     0.29800
C2428       C  0.01733828  0.43345580  0.76897872    -0.19700
C2429       C  0.03978527  0.43508864  0.75601401    -0.29100
C2430       C  0.03375196  0.41892999  0.73504996     0.43900
C2431       C  0.95541030  0.39049752  0.72852929     0.05000
O2432       O  0.96830618  0.41715433  0.77342323    -0.57600
H2433       H  0.02141496  0.44547866  0.78517881     0.18000
O2434       O  0.05506779  0.42016750  0.72167545    -0.64300
H2435       H  0.00167160  0.39216014  0.70983598     0.16400
C2436       C  0.95087327  0.40549979  0.71073149     0.28700
C2437       C  0.92334297  0.39807215  0.70473938    -0.25200
C2438       C  0.90003425  0.37509614  0.71572942    -0.24500
C2439       C  0.90455692  0.35876637  0.73225307     0.40100
C2440       C  0.93214992  0.36680954  0.73885911    -0.26900
O2441       O  0.97325305  0.42876123  0.70039880    -0.58800
H2442       H  0.92018090  0.41055953  0.69172642     0.15800
O2443       O  0.88220744  0.33635845  0.74345321    -0.60300
H2444       H  0.93540088  0.35529755  0.75276807     0.14200
H2445       H  0.05687361  0.40424914  0.72732771     0.46100
H2446       H  0.97782146  0.42152917  0.68605236     0.41400
H2447       H  0.87790193  0.31965524  0.73379899     0.44900
H2448       H  0.96637127  0.43248530  0.76646795     0.36400
C2449       C  0.76017987  0.31434613  0.95653598    -0.27900
C2450       C  0.74496558  0.32815854  0.95732197     0.01700
C2451       C  0.71529252  0.31207417  0.95680436     0.29800
C2452       C  0.70128437  0.28280553  0.95415620    -0.19700
C2453       C  0.71639424  0.26891124  0.95216929    -0.29100
C2454       C  0.74611958  0.28489222  0.95437357     0.43900
C2455       C  0.75983600  0.35930604  0.95571605     0.05000
O2456       O  0.69989326  0.32503773  0.95676004    -0.57600
H2457       H  0.67847251  0.27109005  0.95261946     0.18000
O2458       O  0.76180623  0.27232292  0.95269808    -0.64300
H2459       H  0.78305548  0.32653498  0.95683407     0.16400
C2460       C  0.75737841  0.37551387  0.97374004     0.28700
C2461       C  0.76754173  0.40421813  0.96996327    -0.25200
C2462       C  0.77986977  0.41689548  0.94819987    -0.24500
C2463       C  0.78339516  0.40099989  0.93058268     0.40100
C2464       C  0.77379288  0.37250933  0.93454780    -0.26900
O2465       O  0.74383349  0.36315523  0.99459859    -0.58800
H2466       H  0.76433090  0.41616187  0.98348762     0.15800
O2467       O  0.79572436  0.41306686  0.90924965    -0.60300
H2468       H  0.77577186  0.36029024  0.92051468     0.14200
H2469       H  0.76355179  0.26725080  0.96921750     0.46100
H2470       H  0.75867624  0.36410992  0.00508127     0.41400
H2471       H  0.77981588  0.40847634  0.89838634     0.44900
H2472       H  0.69213599  0.32245543  0.97304664     0.36400
C2473       C  0.76961778  0.25996521  0.85742889    -0.27900
C2474       C  0.76369870  0.24488468  0.83614311     0.01700
C2475       C  0.74599890  0.21531962  0.83654120     0.29800
C2476       C  0.73263834  0.20149415  0.85777877    -0.19700
C2477       C  0.73667891  0.21701016  0.87860236    -0.29100
C2478       C  0.75622897  0.24624533  0.87852662     0.43900
C2479       C  0.77067942  0.26066333  0.81349185     0.05000
O2480       O  0.73987899  0.20010514  0.81592888    -0.57600
H2481       H  0.71714235  0.17910795  0.85744305     0.18000
O2482       O  0.75998281  0.26202733  0.89843021    -0.64300
H2483       H  0.78282455  0.28275330  0.85728220     0.16400
C2484       C  0.75343521  0.27070254  0.80562281     0.28700
C2485       C  0.76006067  0.28650928  0.78478525    -0.25200
C2486       C  0.78414710  0.29304737  0.77135831    -0.24500
C2487       C  0.80153592  0.28295610  0.77931541     0.40100
C2488       C  0.79462627  0.26673823  0.80021962    -0.26900
O2489       O  0.72975773  0.26486531  0.81817066    -0.58800
H2490       H  0.74617603  0.29377096  0.77923306     0.15800
O2491       O  0.82531396  0.28885906  0.76695696    -0.60300
H2492       H  0.80816420  0.25925368  0.80624224     0.14200
H2493       H  0.77496757  0.26148551  0.90758958     0.46100
H2494       H  0.73581379  0.28150391  0.82851036     0.41400
H2495       H  0.84114147  0.30484869  0.77554338     0.44900
H2496       H  0.72281473  0.19929808  0.80948944     0.36400
C2497       C  0.73404329  0.07134811  0.88492206    -0.27900
C2498       C  0.71621552  0.05699629  0.90417830     0.01700
C2499       C  0.71755437  0.03477366  0.91491266     0.29800
C2500       C  0.73703581  0.02768323  0.90660236    -0.19700
C2501       C  0.75588468  0.04316942  0.88816223    -0.29100
C2502       C  0.75387539  0.06476326  0.87704459     0.43900
C2503       C  0.69879787  0.06785046  0.91402517     0.05000
O2504       O  0.69998205  0.02001091  0.93347366    -0.57600
H2505       H  0.73837913  0.01102695  0.91535973     0.18000
O2506       O  0.77174153  0.08009282  0.85883203    -0.64300
H2507       H  0.73341521  0.08862356  0.87660371     0.16400
C2508       C  0.70536008  0.08118326  0.93633294     0.28700
C2509       C  0.69416060  0.09774773  0.94290168    -0.25200
C2510       C  0.67615255  0.10120199  0.92759069    -0.24500
C2511       C  0.66750054  0.08574705  0.90623492     0.40100
C2512       C  0.67916502  0.06956816  0.89943883    -0.26900
O2513       O  0.72431771  0.07987838  0.95111848    -0.58800
H2514       H  0.70073212  0.10910455  0.95956868     0.15800
O2515       O  0.64987249  0.08843959  0.89084374    -0.60300
H2516       H  0.67402358  0.05952974  0.88217177     0.14200
H2517       H  0.76293940  0.06869251  0.84436116     0.46100
H2518       H  0.74309811  0.09578581  0.94626609     0.41400
H2519       H  0.63070636  0.07231570  0.89449089     0.44900
H2520       H  0.71233241  0.02550862  0.94766484     0.36400
C2521       C  0.61919141  0.20551163  0.66839973    -0.27900
C2522       C  0.63703758  0.23280338  0.67739285     0.01700
C2523       C  0.62549001  0.24513208  0.69173030     0.29800
C2524       C  0.59681807  0.23038283  0.69697578    -0.19700
C2525       C  0.57892493  0.20285963  0.68864016    -0.29100
C2526       C  0.59016945  0.19053775  0.67383531     0.43900
C2527       C  0.66803045  0.24818006  0.67383518     0.05000
O2528       O  0.64233271  0.27130698  0.70159332    -0.57600
H2529       H  0.58870846  0.24036670  0.70830954     0.18000
O2530       O  0.57347475  0.16340552  0.66586566    -0.64300
H2531       H  0.62783804  0.19565867  0.65755808     0.16400
C2532       C  0.68434899  0.23790373  0.68368950     0.28700
C2533       C  0.71304195  0.25662226  0.68853974    -0.25200
C2534       C  0.72546738  0.28549447  0.68372813    -0.24500
C2535       C  0.71005644  0.29487299  0.67089034     0.40100
C2536       C  0.68161038  0.27615814  0.66580621    -0.26900
O2537       O  0.67180279  0.21052598  0.69130389    -0.58800
H2538       H  0.72477679  0.24902504  0.69808344     0.15800
O2539       O  0.72191587  0.32277388  0.66502235    -0.60300
H2540       H  0.66941369  0.28419940  0.65774642     0.14200
H2541       H  0.56862258  0.16520892  0.64928718     0.46100
H2542       H  0.67391022  0.20018171  0.67789662     0.41400
H2543       H  0.73205400  0.32511466  0.64988999     0.44900
H2544       H  0.65004676  0.26797803  0.71628478     0.36400
C2545       C  0.53568323  0.13719243  0.81227969    -0.27900
C2546       C  0.55252150  0.12572461  0.80740054     0.01700
C2547       C  0.55391800  0.11756342  0.78405990     0.29800
C2548       C  0.54021611  0.12288265  0.76569071    -0.19700
C2549       C  0.52540290  0.13669139  0.77028095    -0.29100
C2550       C  0.52211097  0.14260940  0.79402478     0.43900
C2551       C  0.57100573  0.12596512  0.82646508     0.05000
O2552       O  0.56873368  0.10456359  0.77913811    -0.57600
H2553       H  0.54242954  0.11744479  0.74768795     0.18000
O2554       O  0.50680156  0.15489945  0.79957785    -0.64300
H2555       H  0.53426935  0.14339017  0.83022310     0.16400
C2556       C  0.60051532  0.14360233  0.82458661     0.28700
C2557       C  0.61745196  0.14962214  0.84472849    -0.25200
C2558       C  0.60544622  0.13824698  0.86697579    -0.24500
C2559       C  0.57607708  0.11869085  0.86837027     0.40100
C2560       C  0.55914035  0.11277632  0.84819549    -0.26900
O2561       O  0.61267620  0.15749465  0.80377916    -0.58800
H2562       H  0.63992454  0.16457588  0.84312681     0.15800
O2563       O  0.56337726  0.10659687  0.88957588    -0.60300
H2564       H  0.53644037  0.09916663  0.84984609     0.14200
H2565       H  0.48687275  0.13912459  0.80027305     0.46100
H2566       H  0.62307509  0.14869205  0.79759634     0.41400
H2567       H  0.55727691  0.11912199  0.89628700     0.44900
H2568       H  0.58439132  0.11761423  0.76850001     0.36400
C2569       C  0.34706808  0.96659347  0.74587973    -0.27900
C2570       C  0.37611818  0.98682602  0.74649734     0.01700
C2571       C  0.39493565  0.97854311  0.75417656     0.29800
C2572       C  0.38478835  0.95067478  0.76103085    -0.19700
C2573       C  0.35573905  0.93019320  0.76045588    -0.29100
C2574       C  0.33680419  0.93853232  0.75291917     0.43900
C2575       C  0.38721711  0.01652569  0.73896626     0.05000
O2576       O  0.42348973  0.99752193  0.75474450    -0.57600
H2577       H  0.39995990  0.94509102  0.76667434     0.18000
O2578       O  0.30838425  0.91934238  0.75157014    -0.64300
H2579       H  0.33229310  0.97259457  0.74000896     0.16400
C2580       C  0.38398422  0.02327233  0.71547986     0.28700
C2581       C  0.39905456  0.05147632  0.70770740    -0.25200
C2582       C  0.41732246  0.07310643  0.72318433    -0.24500
C2583       C  0.41909660  0.06653235  0.74700519     0.40100
C2584       C  0.40406598  0.03851241  0.75475285    -0.26900
O2585       O  0.36828570  0.00229652  0.69944367    -0.58800
H2586       H  0.39795806  0.05619671  0.68922057     0.15800
O2587       O  0.43697362  0.08725430  0.76247075    -0.60300
H2588       H  0.40666922  0.03377694  0.77289703     0.14200
H2589       H  0.30069871  0.92023397  0.76722618     0.46100
H2590       H  0.34954734  0.00055807  0.69925839     0.41400
H2591       H  0.42514177  0.09344168  0.77044908     0.44900
H2592       H  0.43028559  0.99740337  0.73848294     0.36400
C2593       C  0.57189492  0.35101571  0.68644705    -0.27900
C2594       C  0.54365348  0.33707630  0.67894694     0.01700
C2595       C  0.53114708  0.35315598  0.67408836     0.29800
C2596       C  0.54625162  0.38235844  0.67830186    -0.19700
C2597       C  0.57374775  0.39575997  0.68756891    -0.29100
C2598       C  0.58687836  0.37999257  0.69076611     0.43900
C2599       C  0.52693675  0.30570670  0.67952222     0.05000
O2600       O  0.50374846  0.34033129  0.66636737    -0.57600
H2601       H  0.53582056  0.39414617  0.67580862     0.18000
O2602       O  0.61421370  0.39265654  0.69875709    -0.64300
H2603       H  0.58192030  0.33915786  0.69050413     0.16400
C2604       C  0.53739874  0.28979778  0.66917167     0.28700
C2605       C  0.52516075  0.26119039  0.67489525    -0.25200
C2606       C  0.50237883  0.24796203  0.69080664    -0.24500
C2607       C  0.49056983  0.26325007  0.69970761     0.40100
C2608       C  0.50278749  0.29188847  0.69399464    -0.26900
O2609       O  0.55996052  0.30226455  0.65386548    -0.58800
H2610       H  0.53438124  0.24961778  0.66776513     0.15800
O2611       O  0.46878400  0.25114387  0.71569283    -0.60300
H2612       H  0.49468405  0.30380474  0.70244792     0.14200
H2613       H  0.61274823  0.38766354  0.71582233     0.46100
H2614       H  0.57578182  0.30251729  0.66234033     0.41400
H2615       H  0.47764360  0.25906681  0.73129242     0.44900
H2616       H  0.50487572  0.33933085  0.64886587     0.36400
C2617       C  0.70570972  0.52647951  0.86366980    -0.27900
C2618       C  0.72453843  0.54372749  0.84594777     0.01700
C2619       C  0.75379551  0.55820854  0.85032292     0.29800
C2620       C  0.76394086  0.55356163  0.87157151    -0.19700
C2621       C  0.74508668  0.53387746  0.88808033    -0.29100
C2622       C  0.71582320  0.52120126  0.88454360     0.43900
C2623       C  0.71365036  0.54057333  0.82156257     0.05000
O2624       O  0.77252514  0.57550332  0.83330360    -0.57600
H2625       H  0.78651286  0.56335610  0.87414258     0.18000
O2626       O  0.69701547  0.50263451  0.90093494    -0.64300
H2627       H  0.68315818  0.51510513  0.86040232     0.16400
C2628       C  0.71583018  0.52190226  0.80615293     0.28700
C2629       C  0.70154459  0.51467221  0.78455381    -0.25200
C2630       C  0.68499218  0.52592665  0.77777343    -0.24500
C2631       C  0.68382712  0.54569594  0.79269730     0.40100
C2632       C  0.69797186  0.55273674  0.81462684    -0.26900
O2633       O  0.73005357  0.50885574  0.81296675    -0.58800
H2634       H  0.70276517  0.49946832  0.77334238     0.15800
O2635       O  0.66786736  0.55710603  0.78662771    -0.60300
H2636       H  0.69591627  0.56687363  0.82655739     0.14200
H2637       H  0.69139382  0.48362737  0.89493278     0.46100
H2638       H  0.74825549  0.51881148  0.80428154     0.41400
H2639       H  0.64860841  0.54355518  0.79259613     0.44900
H2640       H  0.78021660  0.56456339  0.82608823     0.36400
C2641       C  0.70707072  0.44974453  0.66816804    -0.27900
C2642       C  0.73221190  0.45904821  0.68084488     0.01700
C2643       C  0.74113019  0.48143067  0.69712887     0.29800
C2644       C  0.72391696  0.49261131  0.70182920    -0.19700
C2645       C  0.69753420  0.48133250  0.69076470    -0.29100
C2646       C  0.68974458  0.46059434  0.67309769     0.43900
C2647       C  0.74595469  0.44201620  0.68032501     0.05000
O2648       O  0.76536278  0.49079343  0.71007488    -0.57600
H2649       H  0.72996311  0.50817794  0.71574929     0.18000
O2650       O  0.66405146  0.44907007  0.66198619    -0.64300
H2651       H  0.69988541  0.43258558  0.65559925     0.16400
C2652       C  0.73060720  0.41367312  0.68778583     0.28700
C2653       C  0.74419106  0.39855888  0.69063716    -0.25200
C2654       C  0.77324617  0.41112131  0.68627059    -0.24500
C2655       C  0.78835941  0.43890219  0.67737039     0.40100
C2656       C  0.77474762  0.45427092  0.67469306    -0.26900
O2657       O  0.70257070  0.40098025  0.69369887    -0.58800
H2658       H  0.73212298  0.37717539  0.69736726     0.15800
O2659       O  0.81680087  0.45198122  0.67312345    -0.60300
H2660       H  0.78686246  0.47604633  0.66895524     0.14200
H2661       H  0.66652956  0.46307092  0.64979284     0.46100
H2662       H  0.70235013  0.40579464  0.71061615     0.41400
H2663       H  0.81840396  0.44785162  0.65626963     0.44900
H2664       H  0.75961117  0.47814119  0.72407789     0.36400
C2665       C  0.52843260  0.58673879  0.73481949    -0.27900
C2666       C  0.55595152  0.59905156  0.74385166     0.01700
C2667       C  0.56706711  0.62444081  0.75679168     0.29800
C2668       C  0.54986852  0.63568096  0.76206635    -0.19700
C2669       C  0.52148453  0.62181057  0.75462722    -0.29100
C2670       C  0.51137012  0.59777490  0.74000346     0.43900
C2671       C  0.57131170  0.58356551  0.74081274     0.05000
O2672       O  0.59427090  0.63785073  0.76507291    -0.57600
H2673       H  0.55834459  0.65448910  0.77287672     0.18000
O2674       O  0.48444275  0.58435291  0.73102697    -0.64300
H2675       H  0.51976579  0.56784432  0.72408727     0.16400
C2676       C  0.55806870  0.55504143  0.74766148     0.28700
C2677       C  0.57007890  0.53897832  0.74180824    -0.25200
C2678       C  0.59565092  0.55066698  0.72918360    -0.24500
C2679       C  0.61015840  0.57983385  0.72397385     0.40100
C2680       C  0.59784346  0.59597027  0.72956223    -0.26900
O2681       O  0.53330107  0.54268740  0.76034183    -0.58800
H2682       H  0.55888903  0.51694748  0.74689019     0.15800
O2683       O  0.63557042  0.59248991  0.71232339    -0.60300
H2684       H  0.60854595  0.61791537  0.72430107     0.14200
H2685       H  0.48565164  0.59502208  0.71649758     0.46100
H2686       H  0.51846089  0.52955161  0.74915247     0.41400
H2687       H  0.64998828  0.59874143  0.72503502     0.44900
H2688       H  0.59283165  0.63071922  0.78145940     0.36400
C2689       C  0.40803727  0.20003124  0.85226189    -0.27900
C2690       C  0.42832852  0.19390827  0.84431387     0.01700
C2691       C  0.45178345  0.20075341  0.85866075     0.29800
C2692       C  0.45568496  0.21513710  0.87985622    -0.19700
C2693       C  0.43665348  0.22323826  0.88702659    -0.29100
C2694       C  0.41199912  0.21452513  0.87368295     0.43900
C2695       C  0.42815742  0.18516280  0.81960615     0.05000
O2696       O  0.47271335  0.19646991  0.85075331    -0.57600
H2697       H  0.47479473  0.22171543  0.88993667     0.18000
O2698       O  0.39285892  0.22185740  0.88042853    -0.64300
H2699       H  0.39001599  0.19499280  0.84120900     0.16400
C2700       C  0.42910853  0.16083982  0.81450246     0.28700
C2701       C  0.43731050  0.15731302  0.79192997    -0.25200
C2702       C  0.44448455  0.17782705  0.77440098    -0.24500
C2703       C  0.44129047  0.20090122  0.77889963     0.40100
C2704       C  0.43309131  0.20445680  0.80142485    -0.26900
O2705       O  0.42419059  0.14160144  0.83196474    -0.58800
H2706       H  0.43970254  0.13945755  0.78854599     0.15800
O2707       O  0.44756663  0.22083437  0.76178784    -0.60300
H2708       H  0.43261055  0.22335824  0.80517832     0.14200
H2709       H  0.39981870  0.24070225  0.87333752     0.46100
H2710       H  0.40362298  0.12769880  0.83124962     0.41400
H2711       H  0.43035840  0.21298392  0.75182195     0.44900
H2712       H  0.47028468  0.18011082  0.85992018     0.36400
C2713       C  0.49595220  0.35405670  0.82623151    -0.27900
C2714       C  0.50223245  0.38194405  0.82717481     0.01700
C2715       C  0.49596497  0.39181569  0.84780674     0.29800
C2716       C  0.48583260  0.37459931  0.86794925    -0.19700
C2717       C  0.48232285  0.34759107  0.86792697    -0.29100
C2718       C  0.48589911  0.33678792  0.84634654     0.43900
C2719       C  0.52064228  0.40189480  0.80874591     0.05000
O2720       O  0.50117430  0.41880728  0.84881060    -0.57600
H2721       H  0.48265299  0.38323832  0.88406504     0.18000
O2722       O  0.48161318  0.31016255  0.84506312    -0.64300
H2723       H  0.50075310  0.34631119  0.81035229     0.16400
C2724       C  0.54989446  0.41800949  0.81274416     0.28700
C2725       C  0.56803170  0.43496116  0.79471494    -0.25200
C2726       C  0.55751308  0.43599431  0.77227978    -0.24500
C2727       C  0.52793242  0.42056215  0.76860345     0.40100
C2728       C  0.50975273  0.40345281  0.78676820    -0.26900
O2729       O  0.56103338  0.41660374  0.83408457    -0.58800
H2730       H  0.59054313  0.44657844  0.79813903     0.15800
O2731       O  0.51659612  0.42079577  0.74703876    -0.60300
H2732       H  0.48722231  0.39092950  0.78354302     0.14200
H2733       H  0.46111569  0.29760549  0.84201903     0.46100
H2734       H  0.56337924  0.40010978  0.83273607     0.41400
H2735       H  0.51317475  0.43663257  0.74796019     0.44900
H2736       H  0.52036970  0.43026038  0.85567235     0.36400
C2737       C  0.55392024  0.18718540  0.97196291    -0.27900
C2738       C  0.55964054  0.21337996  0.96306969     0.01700
C2739       C  0.58319359  0.22887789  0.94818572     0.29800
C2740       C  0.60021999  0.21821876  0.94212742    -0.19700
C2741       C  0.59419659  0.19168530  0.95019184    -0.29100
C2742       C  0.57107889  0.17631199  0.96565938     0.43900
C2743       C  0.54012206  0.22388014  0.96713984     0.05000
O2744       O  0.58920454  0.25414054  0.93859740    -0.57600
H2745       H  0.61806796  0.23077170  0.93052532     0.18000
O2746       O  0.56466900  0.15053323  0.97426049    -0.64300
H2747       H  0.53587468  0.17496468  0.98344258     0.16400
C2748       C  0.51197697  0.20825639  0.95914784     0.28700
C2749       C  0.49627392  0.22138298  0.95670549    -0.25200
C2750       C  0.50836579  0.25016190  0.96186563    -0.24500
C2751       C  0.53556381  0.26509591  0.97185997     0.40100
C2752       C  0.55109873  0.25184903  0.97468978    -0.26900
O2753       O  0.50071624  0.18115715  0.95116673    -0.58800
H2754       H  0.47538844  0.20958283  0.94890855     0.15800
O2755       O  0.54776265  0.29303471  0.97766393    -0.60300
H2756       H  0.57259350  0.26407121  0.98118442     0.14200
H2757       H  0.55295483  0.13682058  0.96177857     0.46100
H2758       H  0.48935543  0.16902663  0.96461828     0.41400
H2759       H  0.53993301  0.29316160  0.99346430     0.44900
H2760       H  0.57743634  0.24914793  0.92408153     0.36400
C2761       C  0.58640480  0.39999519  0.98021199    -0.27900
C2762       C  0.60667142  0.41263671  0.96220198     0.01700
C2763       C  0.59829790  0.40848883  0.93830477     0.29800
C2764       C  0.57005506  0.39041742  0.93251563    -0.19700
C2765       C  0.54981752  0.37653943  0.95036330    -0.29100
C2766       C  0.55785985  0.38214118  0.97438362     0.43900
C2767       C  0.63692810  0.42803961  0.96763044     0.05000
O2768       O  0.61795510  0.42042686  0.92047448    -0.57600
H2769       H  0.56410703  0.38628536  0.91396653     0.18000
O2770       O  0.53853834  0.36831167  0.99213168    -0.64300
H2771       H  0.59286701  0.40308044  0.99864786     0.16400
C2772       C  0.65237429  0.45758313  0.96748148     0.28700
C2773       C  0.68171412  0.47203738  0.96510083    -0.25200
C2774       C  0.69576825  0.45718333  0.96219854    -0.24500
C2775       C  0.68039525  0.42758246  0.96463306     0.40100
C2776       C  0.65109141  0.41322239  0.96727913    -0.26900
O2777       O  0.63876809  0.47235607  0.96791455    -0.58800
H2778       H  0.69309777  0.49478926  0.96350675     0.15800
O2779       O  0.69341881  0.41233315  0.96269959    -0.60300
H2780       H  0.63917958  0.39037535  0.96718927     0.14200
H2781       H  0.53004946  0.37993900  0.99526321     0.46100
H2782       H  0.63652395  0.47587151  0.95102903     0.41400
H2783       H  0.70068982  0.41251900  0.97881851     0.44900
H2784       H  0.61820724  0.43783578  0.91600865     0.36400
C2785       C  0.34151193  0.28416029  0.90845022    -0.27900
C2786       C  0.31931750  0.25940705  0.91849987     0.01700
C2787       C  0.32531667  0.24482913  0.93564098     0.29800
C2788       C  0.35331156  0.25447376  0.94181369    -0.19700
C2789       C  0.37574516  0.27866205  0.93113119    -0.29100
C2790       C  0.36955389  0.29393677  0.91468757     0.43900
C2791       C  0.29070783  0.24654733  0.90831125     0.05000
O2792       O  0.30416782  0.21975962  0.94482483    -0.57600
H2793       H  0.35742296  0.24232538  0.95446451     0.18000
O2794       O  0.39067652  0.31736515  0.90344239    -0.64300
H2795       H  0.33711005  0.29533059  0.89500347     0.16400
C2796       C  0.26695435  0.23948678  0.92243456     0.28700
C2797       C  0.23983462  0.22380333  0.91260446    -0.25200
C2798       C  0.23620806  0.21461032  0.88894889    -0.24500
C2799       C  0.26006916  0.22307110  0.87457053     0.40100
C2800       C  0.28704977  0.23898452  0.88426501    -0.26900
O2801       O  0.27015954  0.24786717  0.94572723    -0.58800
H2802       H  0.22161668  0.21758567  0.92382210     0.15800
O2803       O  0.25724215  0.21517056  0.85119338    -0.60300
H2804       H  0.30519309  0.24438244  0.87320946     0.14200
H2805       H  0.39295613  0.33359889  0.91271690     0.46100
H2806       H  0.26124752  0.23026345  0.95524086     0.41400
H2807       H  0.25464287  0.22921427  0.84251195     0.44900
H2808       H  0.30263184  0.22364247  0.96176492     0.36400
C2809       C  0.82095184  0.48395439  0.09777771    -0.27900
C2810       C  0.82112286  0.50778557  0.08935133     0.01700
C2811       C  0.82341618  0.52814633  0.10551203     0.29800
C2812       C  0.82556034  0.52453220  0.12980149    -0.19700
C2813       C  0.82549439  0.50068511  0.13841785    -0.29100
C2814       C  0.82309772  0.48025357  0.12206102     0.43900
C2815       C  0.81784185  0.51064341  0.06371464     0.05000
O2816       O  0.82353138  0.55162619  0.09772030    -0.57600
H2817       H  0.82727770  0.54052040  0.14189401     0.18000
O2818       O  0.82213316  0.45624914  0.12953594    -0.64300
H2819       H  0.81870557  0.46791497  0.08547254     0.16400
C2820       C  0.83758344  0.51199234  0.04726463     0.28700
C2821       C  0.83356188  0.51389399  0.02299056    -0.25200
C2822       C  0.80968815  0.51404593  0.01469962    -0.24500
C2823       C  0.78987070  0.51258578  0.03137866     0.40100
C2824       C  0.79422390  0.51115547  0.05562898    -0.26900
O2825       O  0.86125442  0.51225093  0.05483133    -0.58800
H2826       H  0.84911969  0.51501756  0.01065249     0.15800
O2827       O  0.76617885  0.51258938  0.02430672    -0.60300
H2828       H  0.77877922  0.50988471  0.06819104     0.14200
H2829       H  0.84198438  0.46086477  0.12906711     0.46100
H2830       H  0.85706070  0.49275424  0.05238880     0.41400
H2831       H  0.75113252  0.49241519  0.02316589     0.44900
H2832       H  0.84361092  0.56571354  0.09427025     0.36400
C2833       C  0.01572859  0.61971715  0.23317371    -0.27900
C2834       C  0.99200193  0.59975288  0.24597470     0.01700
C2835       C  0.99568539  0.58914072  0.26747383     0.29800
C2836       C  0.02288318  0.59800818  0.27559010    -0.19700
C2837       C  0.04671153  0.61747685  0.26253256    -0.29100
C2838       C  0.04295193  0.62860359  0.24124813     0.43900
C2839       C  0.96363856  0.58748498  0.23542559     0.05000
O2840       O  0.97283274  0.56839506  0.27962675    -0.57600
H2841       H  0.02527587  0.58895384  0.29180856     0.18000
O2842       O  0.06559988  0.64711297  0.22758348    -0.64300
H2843       H  0.01308572  0.62769544  0.21643257     0.16400
C2844       C  0.94159675  0.58776693  0.24756678     0.28700
C2845       C  0.91394035  0.57185953  0.23900170    -0.25200
C2846       C  0.90795283  0.55556019  0.21832418    -0.24500
C2847       C  0.93048169  0.55718054  0.20521880     0.40100
C2848       C  0.95803947  0.57304846  0.21382795    -0.26900
O2849       O  0.94669716  0.60245842  0.26836736    -0.58800
H2850       H  0.89700016  0.57103292  0.24929960     0.15800
O2851       O  0.92571621  0.54222511  0.18460183    -0.60300
H2852       H  0.97491366  0.57288725  0.20422224     0.14200
H2853       H  0.06946153  0.63513378  0.21709723     0.46100
H2854       H  0.95211726  0.62180191  0.26350019     0.41400
H2855       H  0.92415097  0.55390263  0.17208218     0.44900
H2856       H  0.97119282  0.57768956  0.29404474     0.36400
C2857       C  0.43295034  0.15057045  0.54922429    -0.27900
C2858       C  0.45456957  0.14733213  0.55871476     0.01700
C2859       C  0.47309578  0.14492032  0.54313679     0.29800
C2860       C  0.46993559  0.14587201  0.51862831    -0.19700
C2861       C  0.44886529  0.14994510  0.50912650    -0.29100
C2862       C  0.43016438  0.15215015  0.52467843     0.43900
C2863       C  0.45801056  0.14710229  0.58481770     0.05000
O2864       O  0.49491569  0.14246766  0.55166609    -0.57600
H2865       H  0.48478034  0.14447971  0.50703151     0.18000
O2866       O  0.40921743  0.15601279  0.51615771    -0.64300
H2867       H  0.41817684  0.15195766  0.56089681     0.16400
C2868       C  0.45904640  0.16838820  0.59914999     0.28700
C2869       C  0.46235012  0.16786139  0.62367805    -0.25200
C2870       C  0.46482990  0.14638730  0.63445276    -0.24500
C2871       C  0.46413721  0.12525981  0.62009820     0.40100
C2872       C  0.46058907  0.12565360  0.59552084    -0.26900
O2873       O  0.45822383  0.19054065  0.58921516    -0.58800
H2874       H  0.46335046  0.18465619  0.63426777     0.15800
O2875       O  0.46670380  0.10404359  0.62982553    -0.60300
H2876       H  0.45960321  0.10897231  0.58479398     0.14200
H2877       H  0.39288645  0.13676536  0.51328188     0.46100
H2878       H  0.43957023  0.18763718  0.59368222     0.41400
H2879       H  0.44722361  0.08916472  0.63424416     0.44900
H2880       H  0.51083308  0.16210260  0.55388762     0.36400
C2881       C  0.32335879  0.09722881  0.41747213    -0.27900
C2882       C  0.31767491  0.07511186  0.40205963     0.01700
C2883       C  0.33910923  0.06943855  0.39699447     0.29800
C2884       C  0.36609844  0.08628226  0.40705079    -0.19700
C2885       C  0.37204679  0.10902591  0.42202595    -0.29100
C2886       C  0.35019793  0.11418306  0.42731583     0.43900
C2887       C  0.28947545  0.05937512  0.39080847     0.05000
O2888       O  0.33432099  0.04854968  0.38128656    -0.57600
H2889       H  0.38268234  0.08229098  0.40236144     0.18000
O2890       O  0.35476245  0.13562030  0.44232095    -0.64300
H2891       H  0.30693499  0.10167961  0.42158201     0.16400
C2892       C  0.26848413  0.03260988  0.39913451     0.28700
C2893       C  0.24026703  0.02106131  0.39199668    -0.25200
C2894       C  0.23281017  0.03628145  0.37687430    -0.24500
C2895       C  0.25426800  0.06194186  0.36706712     0.40100
C2896       C  0.28227044  0.07336137  0.37417377    -0.26900
O2897       O  0.27504628  0.01845730  0.41535084    -0.58800
H2898       H  0.22402081  0.00127919  0.39962802     0.15800
O2899       O  0.24785675  0.07685074  0.35151223    -0.60300
H2900       H  0.29825055  0.09393223  0.36760572     0.14200
H2901       H  0.35749018  0.15119671  0.43181886     0.46100
H2902       H  0.27359241  0.02565935  0.43106141     0.41400
H2903       H  0.24437278  0.06696583  0.33608849     0.44900
H2904       H  0.32850583  0.03164836  0.39120861     0.36400
C2905       C  0.48152222  0.35777311  0.09467603    -0.27900
C2906       C  0.46319733  0.32972931  0.08770962     0.01700
C2907       C  0.44888035  0.30889590  0.10512425     0.29800
C2908       C  0.45270067  0.31626566  0.12912536    -0.19700
C2909       C  0.47091890  0.34435262  0.13622748    -0.29100
C2910       C  0.48555669  0.36517075  0.11872759     0.43900
C2911       C  0.45949339  0.32228196  0.06225103     0.05000
O2912       O  0.43110889  0.28125480  0.09883485    -0.57600
H2913       H  0.44157080  0.29982493  0.14224243     0.18000
O2914       O  0.50382935  0.39275965  0.12485766    -0.64300
H2915       H  0.49294604  0.37393155  0.08140475     0.16400
C2916       C  0.44883889  0.33414292  0.04645218     0.28700
C2917       C  0.44576852  0.32696078  0.02237343    -0.25200
C2918       C  0.45333404  0.30802899  0.01367093    -0.24500
C2919       C  0.46406964  0.29622471  0.02961275     0.40100
C2920       C  0.46689316  0.30326588  0.05368172    -0.26900
O2921       O  0.44049080  0.35201324  0.05456378    -0.58800
H2922       H  0.43741040  0.33623448  0.01050230     0.15800
O2923       O  0.47241461  0.27821776  0.02186964    -0.60300
H2924       H  0.47536615  0.29421231  0.06567631     0.14200
H2925       H  0.49201840  0.40136398  0.12579149     0.46100
H2926       H  0.45605258  0.37119976  0.05026764     0.41400
H2927       H  0.49212407  0.29057825  0.01627903     0.44900
H2928       H  0.41214924  0.27890920  0.09758310     0.36400
C2929       C  0.63082155  0.44386926  0.18702775    -0.27900
C2930       C  0.64366675  0.42793462  0.18951716     0.01700
C2931       C  0.62670106  0.39841772  0.19124902     0.29800
C2932       C  0.59736598  0.38542804  0.19263284    -0.19700
C2933       C  0.58442084  0.40152253  0.19234545    -0.29100
C2934       C  0.60138572  0.43091613  0.18849046     0.43900
C2935       C  0.67405067  0.44218258  0.19520921     0.05000
O2936       O  0.63876880  0.38231107  0.19349459    -0.57600
H2937       H  0.58486799  0.36282500  0.19531485     0.18000
O2938       O  0.58972740  0.44749211  0.18780026    -0.64300
H2939       H  0.64371699  0.46662961  0.18582371     0.16400
C2940       C  0.69534828  0.45873387  0.17867071     0.28700
C2941       C  0.72389167  0.47074225  0.18500403    -0.25200
C2942       C  0.73139803  0.46670570  0.20789877    -0.24500
C2943       C  0.70974634  0.45107348  0.22464159     0.40100
C2944       C  0.68153304  0.43904829  0.21818830    -0.26900
O2945       O  0.68845741  0.46220469  0.15608098    -0.58800
H2946       H  0.74007370  0.48253854  0.17182506     0.15800
O2947       O  0.71582891  0.44760845  0.24754549    -0.60300
H2948       H  0.66526439  0.42695390  0.23124916     0.14200
H2949       H  0.59071588  0.45404355  0.20434423     0.46100
H2950       H  0.68977059  0.48071805  0.15622626     0.41400
H2951       H  0.71311435  0.42848368  0.24804422     0.44900
H2952       H  0.64231172  0.37867723  0.17700859     0.36400
C2953       C  0.41920529  0.26257091  0.30368299    -0.27900
C2954       C  0.43881447  0.26887332  0.32190259     0.01700
C2955       C  0.46543785  0.29372400  0.32077335     0.29800
C2956       C  0.47277616  0.31129253  0.30103529    -0.19700
C2957       C  0.45397553  0.30434115  0.28194088    -0.29100
C2958       C  0.42650855  0.28030238  0.28383462     0.43900
C2959       C  0.43349275  0.24815547  0.34059185     0.05000
O2960       O  0.48539697  0.29957105  0.33786266    -0.57600
H2961       H  0.49403093  0.32946405  0.30009524     0.18000
O2962       O  0.40715427  0.27314694  0.26596943    -0.64300
H2963       H  0.39864661  0.24339103  0.30446421     0.16400
C2964       C  0.43033800  0.25366136  0.36436142     0.28700
C2965       C  0.43341326  0.23826404  0.38253647    -0.25200
C2966       C  0.44039493  0.21788745  0.37719194    -0.24500
C2967       C  0.44100485  0.21072416  0.35328290     0.40100
C2968       C  0.43756107  0.22587444  0.33516883    -0.26900
O2969       O  0.42564699  0.27496521  0.36992762    -0.58800
H2970       H  0.43247151  0.24379402  0.40081168     0.15800
O2971       O  0.44655194  0.19008915  0.34739124    -0.60300
H2972       H  0.44010510  0.22157504  0.31687043     0.14200
H2973       H  0.39749843  0.28359561  0.26951700     0.46100
H2974       H  0.44399597  0.29065604  0.37579800     0.41400
H2975       H  0.42822746  0.17210346  0.34902685     0.44900
H2976       H  0.48585095  0.31450388  0.34783598     0.36400
C2977       C  0.35276250  0.41159301  0.23228699    -0.27900
C2978       C  0.37800109  0.41610985  0.24221570     0.01700
C2979       C  0.39176653  0.43696344  0.25964865     0.29800
C2980       C  0.38057557  0.45332942  0.26668650    -0.19700
C2981       C  0.35550762  0.44931344  0.25662063    -0.29100
C2982       C  0.34140403  0.42793502  0.23939257     0.43900
C2983       C  0.39112127  0.40047873  0.23334203     0.05000
O2984       O  0.41715880  0.44266940  0.26880769    -0.57600
H2985       H  0.39205356  0.46970151  0.27975539     0.18000
O2986       O  0.31688473  0.42313151  0.22903641    -0.64300
H2987       H  0.34209700  0.39564454  0.21873313     0.16400
C2988       C  0.39416390  0.38182451  0.24816527     0.28700
C2989       C  0.40973823  0.36992464  0.24037747    -0.25200
C2990       C  0.42313909  0.37708661  0.21813520    -0.24500
C2991       C  0.41920035  0.39500994  0.20299050     0.40100
C2992       C  0.40312049  0.40640081  0.21059469    -0.26900
O2993       O  0.38213413  0.37534006  0.27033132    -0.58800
H2994       H  0.41253174  0.35620907  0.25227117     0.15800
O2995       O  0.43157672  0.40212824  0.18098646    -0.60300
H2996       H  0.40097490  0.42082831  0.19908302     0.14200
H2997       H  0.32295892  0.43553007  0.21485776     0.46100
H2998       H  0.39812789  0.38460587  0.28165267     0.41400
H2999       H  0.41751799  0.38758113  0.17009364     0.44900
H3000       H  0.41305962  0.43561295  0.28536786     0.36400
C3001       C  0.67911897  0.62732657  0.41440709    -0.27900
C3002       C  0.70805227  0.64763825  0.41529752     0.01700
C3003       C  0.72678179  0.64049860  0.42524448     0.29800
C3004       C  0.71678777  0.61306981  0.43312191    -0.19700
C3005       C  0.68806951  0.59208217  0.43116998    -0.29100
C3006       C  0.66901040  0.59965445  0.42230439     0.43900
C3007       C  0.71937201  0.67581090  0.40453937     0.05000
O3008       O  0.75500112  0.66037250  0.42737454    -0.57600
H3009       H  0.73186275  0.60814683  0.44032885     0.18000
O3010       O  0.64079151  0.57999195  0.42011929    -0.64300
H3011       H  0.66452014  0.63267619  0.40682777     0.16400
C3012       C  0.73820592  0.68394564  0.38528083     0.28700
C3013       C  0.75338100  0.71203260  0.37806839    -0.25200
C3014       C  0.74962320  0.73231776  0.38943165    -0.24500
C3015       C  0.72907240  0.72387936  0.40737342     0.40100
C3016       C  0.71413200  0.69565182  0.41495569    -0.26900
O3017       O  0.74315207  0.66485056  0.37430899    -0.58800
H3018       H  0.76894835  0.71822366  0.36407164     0.15800
O3019       O  0.72543862  0.74343127  0.41908333    -0.60300
H3020       H  0.69968814  0.68960705  0.42980694     0.14200
H3021       H  0.63209688  0.58133435  0.43506581     0.46100
H3022       H  0.72750638  0.65484036  0.36277949     0.41400
H3023       H  0.70920143  0.74288074  0.41112751     0.44900
H3024       H  0.76461802  0.65547515  0.41512461     0.36400
C3025       C  0.61178624  0.49386674  0.59915065    -0.27900
C3026       C  0.63762815  0.51504589  0.58960260     0.01700
C3027       C  0.65795743  0.53571819  0.60481619     0.29800
C3028       C  0.65284458  0.53424237  0.62927924    -0.19700
C3029       C  0.62755239  0.51230941  0.63905224    -0.29100
C3030       C  0.60668235  0.49229934  0.62364463     0.43900
C3031       C  0.64314757  0.51525297  0.56377894     0.05000
O3032       O  0.68255550  0.55783604  0.59580601    -0.57600
H3033       H  0.66901827  0.55009937  0.64070144     0.18000
O3034       O  0.58168110  0.47050085  0.63233738    -0.64300
H3035       H  0.59583530  0.47793203  0.58763156     0.16400
C3036       C  0.66674141  0.51453544  0.55532194     0.28700
C3037       C  0.67163966  0.51507848  0.53086329    -0.25200
C3038       C  0.65280567  0.51549034  0.51442185    -0.24500
C3039       C  0.62888603  0.51563691  0.52294447     0.40100
C3040       C  0.62433032  0.51565233  0.54739165    -0.26900
O3041       O  0.68482857  0.51270316  0.57079644    -0.58800
H3042       H  0.68985007  0.51444788  0.52473853     0.15800
O3043       O  0.61033658  0.51681102  0.50756021    -0.60300
H3044       H  0.60609206  0.51618463  0.55359531     0.14200
H3045       H  0.58522728  0.45499490  0.63538512     0.46100
H3046       H  0.67615292  0.49227917  0.57404346     0.41400
H3047       H  0.59439567  0.49707047  0.50602421     0.44900
H3048       H  0.69782833  0.55503405  0.60161473     0.36400
C3049       C  0.74342217  0.53229235  0.33941191    -0.27900
C3050       C  0.77104829  0.53935195  0.34466060     0.01700
C3051       C  0.78028078  0.54397894  0.36836647     0.29800
C3052       C  0.76128532  0.53972527  0.38663652    -0.19700
C3053       C  0.73282871  0.52996533  0.38151323    -0.29100
C3054       C  0.72422331  0.52726626  0.35760899     0.43900
C3055       C  0.78760394  0.53627457  0.32570291     0.05000
O3056       O  0.80748450  0.55159270  0.37380405    -0.57600
H3057       H  0.76834990  0.54204958  0.40487481     0.18000
O3058       O  0.69689702  0.51893491  0.35185657    -0.64300
H3059       H  0.73610669  0.52860303  0.32118775     0.16400
C3060       C  0.79042265  0.51253092  0.32574727     0.28700
C3061       C  0.80010442  0.50570455  0.30551471    -0.25200
C3062       C  0.80654926  0.52190179  0.28469441    -0.24500
C3063       C  0.80567244  0.54689133  0.28525316     0.40100
C3064       C  0.79595337  0.55374753  0.30563619    -0.26900
O3065       O  0.78154690  0.49453325  0.34482088    -0.58800
H3066       H  0.80049838  0.48640396  0.30569894     0.15800
O3067       O  0.81254710  0.56382975  0.26562264    -0.60300
H3068       H  0.79361986  0.57195868  0.30540100     0.14200
H3069       H  0.68767844  0.49865294  0.34776461     0.46100
H3070       H  0.76128195  0.48067078  0.34181034     0.41400
H3071       H  0.83332217  0.57670122  0.26646243     0.44900
H3072       H  0.80622162  0.53426722  0.38006177     0.36400
C3073       C  0.53305482  0.44345801  0.30431942    -0.27900
C3074       C  0.56256887  0.46099335  0.30526792     0.01700
C3075       C  0.57858056  0.46540165  0.28458585     0.29800
C3076       C  0.56531823  0.45024297  0.26396206    -0.19700
C3077       C  0.53609427  0.43101010  0.26359676    -0.29100
C3078       C  0.51976397  0.42840887  0.28361678     0.43900
C3079       C  0.57662879  0.46782727  0.32863470     0.05000
O3080       O  0.60748668  0.48174996  0.28521158    -0.57600
H3081       H  0.57814402  0.45182386  0.24882722     0.18000
O3082       O  0.49126038  0.40920413  0.28386754    -0.64300
H3083       H  0.52060934  0.43950273  0.32027755     0.16400
C3084       C  0.59024107  0.49506635  0.33849618     0.28700
C3085       C  0.60454285  0.50029100  0.36028250    -0.25200
C3086       C  0.60571066  0.47856977  0.37212491    -0.24500
C3087       C  0.59160603  0.45125961  0.36213476     0.40100
C3088       C  0.57731219  0.44617423  0.34068467    -0.26900
O3089       O  0.59023457  0.51671484  0.32677676    -0.58800
H3090       H  0.61532851  0.52141063  0.36757729     0.15800
O3091       O  0.59181824  0.42926226  0.37304942    -0.60300
H3092       H  0.56701657  0.42516715  0.33314316     0.14200
H3093       H  0.48929599  0.39136868  0.28962625     0.46100
H3094       H  0.57200878  0.51495926  0.33100242     0.41400
H3095       H  0.57632392  0.42188688  0.38487703     0.44900
H3096       H  0.61190284  0.50127641  0.28249619     0.36400
C3097       C  0.51221415  0.30963105  0.47307056    -0.27900
C3098       C  0.54010554  0.32615177  0.46479682     0.01700
C3099       C  0.55309532  0.31289187  0.45400891     0.29800
C3100       C  0.53785012  0.28380847  0.45048666    -0.19700
C3101       C  0.50944063  0.26731552  0.45747258    -0.29100
C3102       C  0.49694242  0.28025837  0.46973044     0.43900
C3103       C  0.55508764  0.35732291  0.46510064     0.05000
O3104       O  0.58027615  0.32841426  0.44565198    -0.57600
H3105       H  0.54796598  0.27426080  0.44122165     0.18000
O3106       O  0.46926160  0.26486214  0.47678343    -0.64300
H3107       H  0.50202188  0.31963712  0.48141461     0.16400
C3108       C  0.54653184  0.37170588  0.44990683     0.28700
C3109       C  0.56467652  0.40060140  0.44562371    -0.25200
C3110       C  0.59140693  0.41526099  0.45627189    -0.24500
C3111       C  0.59889871  0.40139861  0.47298689     0.40100
C3112       C  0.58080479  0.37260406  0.47727704    -0.26900
O3113       O  0.52192030  0.35714434  0.43722486    -0.58800
H3114       H  0.55883240  0.41097211  0.43252026     0.15800
O3115       O  0.62469688  0.41542860  0.48403413    -0.60300
H3116       H  0.58761804  0.36178678  0.48899925     0.14200
H3117       H  0.46980491  0.25858530  0.49315115     0.46100
H3118       H  0.50742238  0.35763188  0.44718234     0.41400
H3119       H  0.62257162  0.42630184  0.49698062     0.44900
H3120       H  0.57859837  0.33415685  0.42935256     0.36400
C3121       C  0.82969744  0.32398451  0.59794257    -0.27900
C3122       C  0.82777809  0.34271301  0.58251220     0.01700
C3123       C  0.82806600  0.36641511  0.59185716     0.29800
C3124       C  0.82927730  0.37047855  0.61648173    -0.19700
C3125       C  0.82999003  0.35100686  0.63193184    -0.29100
C3126       C  0.83088875  0.32800361  0.62243319     0.43900
C3127       C  0.82394264  0.33614382  0.55688669     0.05000
O3128       O  0.82503995  0.38444133  0.57721075    -0.57600
H3129       H  0.82836531  0.38816129  0.62351898     0.18000
O3130       O  0.83245596  0.30901980  0.63695595    -0.64300
H3131       H  0.82985537  0.30587986  0.59094324     0.16400
C3132       C  0.84271355  0.35532620  0.53994645     0.28700
C3133       C  0.83855031  0.34829287  0.51588962    -0.25200
C3134       C  0.81598985  0.32200342  0.50828516    -0.24500
C3135       C  0.79747315  0.30264415  0.52534890     0.40100
C3136       C  0.80159586  0.30978514  0.54941008    -0.26900
O3137       O  0.86535731  0.38085094  0.54669499    -0.58800
H3138       H  0.85318632  0.36348515  0.50313859     0.15800
O3139       O  0.77503551  0.27690523  0.51877021    -0.60300
H3140       H  0.78704877  0.29478117  0.56231795     0.14200
H3141       H  0.85290968  0.31608064  0.63843704     0.46100
H3142       H  0.88008319  0.37680934  0.55163754     0.41400
H3143       H  0.75917311  0.28006697  0.51620562     0.44900
H3144       H  0.84344814  0.40248739  0.57773860     0.36400
C3145       C  0.86298688  0.44533734  0.30985928    -0.27900
C3146       C  0.86442398  0.42115740  0.30599709     0.01700
C3147       C  0.86717545  0.41383410  0.28263511     0.29800
C3148       C  0.86515303  0.42871440  0.26341856    -0.19700
C3149       C  0.86018079  0.45068863  0.26737526    -0.29100
C3150       C  0.86058378  0.45994230  0.29068525     0.43900
C3151       C  0.85650168  0.40077219  0.32567445     0.05000
O3152       O  0.86899090  0.39050225  0.27838916    -0.57600
H3153       H  0.86452188  0.42123631  0.24553317     0.18000
O3154       O  0.85619547  0.48174197  0.29487543    -0.64300
H3155       H  0.86074498  0.45117146  0.32771493     0.16400
C3156       C  0.87202689  0.40795829  0.34693056     0.28700
C3157       C  0.86109761  0.38999128  0.36666224    -0.25200
C3158       C  0.83423903  0.36537970  0.36567787    -0.24500
C3159       C  0.81918206  0.35779385  0.34414709     0.40100
C3160       C  0.83050911  0.37525663  0.32429112    -0.26900
O3161       O  0.89760567  0.43266558  0.34863659    -0.58800
H3162       H  0.87288506  0.39612615  0.38313618     0.15800
O3163       O  0.79330550  0.33340212  0.34238717    -0.60300
H3164       H  0.81818536  0.36962057  0.30810421     0.14200
H3165       H  0.83603054  0.47265436  0.29942640     0.46100
H3166       H  0.89365167  0.44591634  0.35710376     0.41400
H3167       H  0.77926177  0.33926753  0.34417155     0.44900
H3168       H  0.88902732  0.39668445  0.28138240     0.36400
C3169       C  0.65444864  0.21441082  0.46901142    -0.27900
C3170       C  0.63708666  0.22268792  0.45803627     0.01700
C3171       C  0.64967685  0.24754095  0.44442100     0.29800
C3172       C  0.67892452  0.26345672  0.44155480    -0.19700
C3173       C  0.69652088  0.25510338  0.45191307    -0.29100
C3174       C  0.68404926  0.23052351  0.46612400     0.43900
C3175       C  0.60579684  0.20590221  0.46019370     0.05000
O3176       O  0.63338909  0.25618994  0.43335310    -0.57600
H3177       H  0.68782740  0.28219982  0.43058315     0.18000
O3178       O  0.70037501  0.22163628  0.47671182    -0.64300
H3179       H  0.64504010  0.19537772  0.47962856     0.16400
C3180       C  0.58948943  0.18061640  0.44740979     0.28700
C3181       C  0.56054167  0.16992105  0.44356262    -0.25200
C3182       C  0.54774720  0.18430915  0.45236570    -0.24500
C3183       C  0.56342593  0.20771050  0.46737581     0.40100
C3184       C  0.59218032  0.21835765  0.47111399    -0.26900
O3185       O  0.60220334  0.16796797  0.43650394    -0.58800
H3186       H  0.54879080  0.15189692  0.43200065     0.15800
O3187       O  0.55135758  0.22173841  0.47693251    -0.60300
H3188       H  0.60438895  0.23770051  0.48110917     0.14200
H3189       H  0.70240968  0.20980374  0.46464849     0.46100
H3190       H  0.59995477  0.15319001  0.44775037     0.41400
H3191       H  0.53989615  0.20996658  0.49050991     0.44900
H3192       H  0.62889857  0.24697797  0.41755824     0.36400
C3193       C  0.78454015  0.42695854  0.44295210    -0.27900
C3194       C  0.76458163  0.41954753  0.46123072     0.01700
C3195       C  0.75608386  0.39477617  0.47436829     0.29800
C3196       C  0.76524562  0.37651525  0.46768107    -0.19700
C3197       C  0.78362235  0.38299278  0.44838880    -0.29100
C3198       C  0.79408711  0.40884932  0.43651329     0.43900
C3199       C  0.74886050  0.43451954  0.46335039     0.05000
O3200       O  0.73745869  0.38741818  0.49287998    -0.57600
H3201       H  0.75715230  0.35670658  0.47702747     0.18000
O3202       O  0.81195162  0.41560888  0.41749372    -0.64300
H3203       H  0.79113583  0.44577201  0.43250529     0.16400
C3204       C  0.76255811  0.46398277  0.46636042     0.28700
C3205       C  0.74707738  0.47755080  0.46460978    -0.25200
C3206       C  0.71804924  0.46203118  0.45947316    -0.24500
C3207       C  0.70428081  0.43251565  0.45746391     0.40100
C3208       C  0.71955691  0.41901916  0.45969372    -0.26900
O3209       O  0.79115574  0.47976964  0.47001193    -0.58800
H3210       H  0.75805980  0.50032529  0.46574747     0.15800
O3211       O  0.67589661  0.41671971  0.45265333    -0.60300
H3212       H  0.70865559  0.39640450  0.45713514     0.14200
H3213       H  0.79946512  0.40660457  0.40358743     0.46100
H3214       H  0.79357513  0.47972305  0.48744386     0.41400
H3215       H  0.67455057  0.41278474  0.43537349     0.44900
H3216       H  0.74938475  0.39687394  0.50697874     0.36400
C3217       C  0.87065807  0.24742374  0.43132169    -0.27900
C3218       C  0.89234421  0.26160442  0.41459710     0.01700
C3219       C  0.89822170  0.28794637  0.40594959     0.29800
C3220       C  0.88136999  0.29888462  0.41304095    -0.19700
C3221       C  0.85845868  0.28367609  0.42863074    -0.29100
C3222       C  0.85392312  0.25824175  0.43840176     0.43900
C3223       C  0.90540324  0.24642482  0.40409972     0.05000
O3224       O  0.91881671  0.30199159  0.38916374    -0.57600
H3225       H  0.88521539  0.31844991  0.40531014     0.18000
O3226       O  0.83249569  0.24321119  0.45433559    -0.64300
H3227       H  0.86595360  0.22720643  0.43823254     0.16400
C3228       C  0.93394483  0.25488415  0.40764302     0.28700
C3229       C  0.94422793  0.23788494  0.39930132    -0.25200
C3230       C  0.92617620  0.21221716  0.38765533    -0.24500
C3231       C  0.89796901  0.20469025  0.38323778     0.40100
C3232       C  0.88789758  0.22156391  0.39152404    -0.26900
O3233       O  0.95160427  0.27907490  0.41995705    -0.58800
H3234       H  0.96592061  0.24412604  0.40290494     0.15800
O3235       O  0.87968307  0.18041588  0.37125104    -0.60300
H3236       H  0.86596847  0.21488055  0.38847943     0.14200
H3237       H  0.84034801  0.25200643  0.46996993     0.46100
H3238       H  0.95064263  0.27298267  0.43665812     0.41400
H3239       H  0.88246793  0.18576340  0.35423547     0.44900
H3240       H  0.93575066  0.31589878  0.39817747     0.36400
C3241       C  0.66813598  0.17512689  0.05045982    -0.27900
C3242       C  0.64312539  0.15187175  0.05915962     0.01700
C3243       C  0.62505755  0.13042651  0.04334866     0.29800
C3244       C  0.63167887  0.13280611  0.01916371    -0.19700
C3245       C  0.65640582  0.15643489  0.01018741    -0.29100
C3246       C  0.67493125  0.17748678  0.02626592     0.43900
C3247       C  0.63584491  0.15031044  0.08467714     0.05000
O3248       O  0.60070827  0.10713649  0.05133265    -0.57600
H3249       H  0.61708169  0.11618892  0.00736400     0.18000
O3250       O  0.69921962  0.20098283  0.01851156    -0.64300
H3251       H  0.68220481  0.19185658  0.06241944     0.16400
C3252       C  0.65405552  0.15083080  0.10229422     0.28700
C3253       C  0.64658732  0.14884219  0.12624933    -0.25200
C3254       C  0.62113101  0.14672306  0.13323341    -0.24500
C3255       C  0.60317892  0.14684247  0.11549385     0.40100
C3256       C  0.61049418  0.14835129  0.09147929    -0.26900
O3257       O  0.67868680  0.15212546  0.09620388    -0.58800
H3258       H  0.66089472  0.14891147  0.13938687     0.15800
O3259       O  0.57833495  0.14523379  0.12129560    -0.60300
H3260       H  0.59642348  0.14826492  0.07808113     0.14200
H3261       H  0.71430825  0.19662604  0.02081706     0.46100
H3262       H  0.69385607  0.17193165  0.09914302     0.41400
H3263       H  0.58313678  0.16507838  0.12246843     0.44900
H3264       H  0.60659859  0.09413420  0.05728124     0.36400
C3265       C  0.50238866  0.24942404  0.17297580    -0.27900
C3266       C  0.51384130  0.24045068  0.19062824     0.01700
C3267       C  0.51458197  0.24884154  0.21424226     0.29800
C3268       C  0.50519274  0.26704282  0.21989719    -0.19700
C3269       C  0.49485219  0.27723018  0.20224925    -0.29100
C3270       C  0.49266858  0.26761801  0.17869708     0.43900
C3271       C  0.52706162  0.22400584  0.18480014     0.05000
O3272       O  0.52600494  0.24058042  0.23173167    -0.57600
H3273       H  0.50688772  0.27394737  0.23813496     0.18000
O3274       O  0.48313853  0.27746893  0.16092155    -0.64300
H3275       H  0.50184479  0.24306850  0.15471381     0.16400
C3276       C  0.51176507  0.19453357  0.18724743     0.28700
C3277       C  0.52613760  0.17995533  0.18862336    -0.25200
C3278       C  0.55580483  0.19467036  0.18823367    -0.24500
C3279       C  0.57088997  0.22392620  0.18380766     0.40100
C3280       C  0.55646897  0.23837058  0.18212614    -0.26900
O3281       O  0.48298665  0.18012068  0.18999485    -0.58800
H3282       H  0.51417865  0.15748282  0.19206078     0.15800
O3283       O  0.59983302  0.23889622  0.18272463    -0.60300
H3284       H  0.56843060  0.26113220  0.18047995     0.14200
H3285       H  0.46260336  0.26353821  0.15975256     0.46100
H3286       H  0.47977439  0.17901684  0.20738354     0.41400
H3287       H  0.60444530  0.23676277  0.16614346     0.44900
H3288       H  0.50993413  0.22285914  0.23818366     0.36400
C3289       C  0.66728404  0.18653578  0.32089874    -0.27900
C3290       C  0.69401771  0.18954628  0.31937826     0.01700
C3291       C  0.70162307  0.18127400  0.29847697     0.29800
C3292       C  0.68336747  0.17204458  0.27892634    -0.19700
C3293       C  0.65754665  0.17123779  0.27973297    -0.29100
C3294       C  0.64904177  0.17737374  0.30138892     0.43900
C3295       C  0.71454446  0.20424213  0.33880657     0.05000
O3296       O  0.72688288  0.18227714  0.29705314    -0.57600
H3297       H  0.69011519  0.16671373  0.26274022     0.18000
O3298       O  0.62385179  0.17636424  0.30333235    -0.64300
H3299       H  0.66110831  0.19277831  0.33691677     0.16400
C3300       C  0.73997708  0.22984990  0.33437670     0.28700
C3301       C  0.75617935  0.24671515  0.35330471    -0.25200
C3302       C  0.74724311  0.23871634  0.37680148    -0.24500
C3303       C  0.72294830  0.21220102  0.38132786     0.40100
C3304       C  0.70673989  0.19522364  0.36235431    -0.26900
O3305       O  0.74796927  0.23980509  0.31168384    -0.58800
H3306       H  0.77477315  0.26709113  0.34955419     0.15800
O3307       O  0.71306366  0.20412915  0.40403070    -0.60300
H3308       H  0.68710497  0.17574028  0.36602621     0.14200
H3309       H  0.60999525  0.15681529  0.30839775     0.46100
H3310       H  0.73878762  0.25074213  0.30831594     0.41400
H3311       H  0.72236008  0.19410628  0.40994242     0.44900
H3312       H  0.73795395  0.19635396  0.28454821     0.36400
C3313       C  0.52013466  0.10502796  0.30151821    -0.27900
C3314       C  0.49818758  0.11060403  0.30010311     0.01700
C3315       C  0.48996424  0.11519104  0.27769863     0.29800
C3316       C  0.50569674  0.11733971  0.25751952    -0.19700
C3317       C  0.52936810  0.11457533  0.25942728    -0.29100
C3318       C  0.53573647  0.10700701  0.28130644     0.43900
C3319       C  0.48893529  0.11813950  0.32204761     0.05000
O3320       O  0.46845931  0.12049291  0.27576004    -0.57600
H3321       H  0.50098183  0.12369815  0.24080714     0.18000
O3322       O  0.55937447  0.10516776  0.28370508    -0.64300
H3323       H  0.52702744  0.10196127  0.31864494     0.16400
C3324       C  0.47725441  0.09952306  0.34141388     0.28700
C3325       C  0.47226771  0.10899801  0.36293776    -0.25200
C3326       C  0.47979028  0.13723695  0.36557743    -0.24500
C3327       C  0.49093862  0.15559723  0.34594094     0.40100
C3328       C  0.49514023  0.14591811  0.32442803    -0.26900
O3329       O  0.47067484  0.07214062  0.33941338    -0.58800
H3330       H  0.46364826  0.09460709  0.37783230     0.15800
O3331       O  0.49768077  0.18308728  0.34752761    -0.60300
H3332       H  0.50447618  0.16060436  0.30977602     0.14200
H3333       H  0.55399612  0.08643744  0.27719754     0.46100
H3334       H  0.48627862  0.07154183  0.34745557     0.41400
H3335       H  0.51842535  0.19429813  0.34993932     0.44900
H3336       H  0.45092105  0.10165556  0.27533889     0.36400
C3337       C  0.71636107  0.28118077  0.17768724    -0.27900
C3338       C  0.72116474  0.30103780  0.19532334     0.01700
C3339       C  0.70734787  0.29183731  0.21731382     0.29800
C3340       C  0.68801540  0.26340496  0.22111485    -0.19700
C3341       C  0.68207464  0.24338942  0.20329489    -0.29100
C3342       C  0.69681741  0.25238603  0.18153253     0.43900
C3343       C  0.73919393  0.33160828  0.19100406     0.05000
O3344       O  0.71207452  0.31071253  0.23507661    -0.57600
H3345       H  0.67736590  0.25710149  0.23812818     0.18000
O3346       O  0.69179422  0.23347265  0.16375390    -0.64300
H3347       H  0.72703260  0.28809523  0.16073142     0.16400
C3348       C  0.76876592  0.34495735  0.18981618     0.28700
C3349       C  0.78554877  0.37428032  0.19276678    -0.25200
C3350       C  0.77297247  0.39033844  0.19698631    -0.24500
C3351       C  0.74330467  0.37706254  0.19572842     0.40100
C3352       C  0.72674882  0.34798673  0.19268633    -0.26900
O3353       O  0.78139353  0.32933276  0.18812542    -0.58800
H3354       H  0.80829657  0.38410148  0.19347070     0.15800
O3355       O  0.73009580  0.39196537  0.19908829    -0.60300
H3356       H  0.70395600  0.33787764  0.19340650     0.14200
H3357       H  0.67604133  0.23226565  0.15439422     0.46100
H3358       H  0.78424676  0.32817334  0.17088395     0.41400
H3359       H  0.73008434  0.39980499  0.18328386     0.44900
H3360       H  0.72962855  0.31433394  0.24300867     0.36400
C3361       C  0.59549388  0.03635478  0.24429041    -0.27900
C3362       C  0.57366061  0.01319081  0.23228557     0.01700
C3363       C  0.56235578  0.01756956  0.21152127     0.29800
C3364       C  0.57200429  0.04499550  0.20367354    -0.19700
C3365       C  0.59311768  0.06835758  0.21617147    -0.29100
C3366       C  0.60545981  0.06379288  0.23629422     0.43900
C3367       C  0.56029457  0.98495717  0.24314628     0.05000
O3368       O  0.54022434  0.99529632  0.19997579    -0.57600
H3369       H  0.56220364  0.04796553  0.18821357     0.18000
O3370       O  0.62570446  0.08593092  0.24936862    -0.64300
H3371       H  0.60413559  0.03316365  0.26041817     0.16400
C3372       C  0.55841905  0.96196460  0.23092217     0.28700
C3373       C  0.54193637  0.93476469  0.24017618    -0.25200
C3374       C  0.52716491  0.93019021  0.26158685    -0.24500
C3375       C  0.53069712  0.95349380  0.27459633     0.40100
C3376       C  0.54717147  0.98063548  0.26532151    -0.26900
O3377       O  0.57170943  0.96575927  0.20951155    -0.58800
H3378       H  0.53962082  0.91711625  0.23000531     0.15800
O3379       O  0.51740053  0.94993125  0.29598499    -0.60300
H3380       H  0.54869331  0.99825643  0.27498360     0.14200
H3381       H  0.64398649  0.08937593  0.24315309     0.46100
H3382       H  0.59078335  0.96949187  0.21350606     0.41400
H3383       H  0.53034793  0.94961134  0.30796182     0.44900
H3384       H  0.54847361  0.99266000  0.18529637     0.36400
loop_ 
_geom_bond_atom_site_label_1 
_geom_bond_atom_site_label_2 
_geom_bond_distance 
_geom_bond_site_symmetry_2 
_ccdc_geom_bond_type 
O1           C16   1.262       .  A
O1           Al9   1.905       .  S
C2           O12   1.260       .  A
C2            O3   1.259       .  A
C2         C3317   1.463       .  S
O3           Al5   1.898       .  S
O4            C6   1.261       .  A
O4           Al5   1.900       .  S
Al5          O13   1.886       .  S
Al5          O15   1.900       .  S
Al5          O14   1.772       .  S
C6           O19   1.263       .  A
C6         C3293   1.485       .  S
O7           C17   1.259       .  A
O7           Al9   1.881       .  S
O8           C21   1.262       .  A
O8          Al18   1.903       .  S
Al9          O22   1.909       .  S
Al9          O19   1.914       .  S
Al9          O14   1.781       .  S
O10          C17   1.267       .  A
O10         Al18   1.923       .  S
O11          C20   1.265       .  A
O11         Al18   1.928       .  S
O12         Al18   1.909       .  S
O13          C20   1.260       .  A
O14         Al18   1.784       .  S
O15          C16   1.263       .  A
C16        C3341   1.478       .  S
C17        C3365   1.478       .  S
C20        C3278   1.476       .  S
C21          O22   1.262       .  A
C21        C3254   1.488       .  S
O23          C38   1.255       .  A
O23         Al31   1.866       .  S
C24          O34   1.264       .  A
C24          O25   1.271       .  A
C24        C3302   1.472       .  S
O25         Al27   1.936       .  S
O26          C28   1.258       .  A
O26         Al27   1.886       .  S
Al27         O35   1.920       .  S
Al27         O37   1.914       .  S
Al27         O36   1.795       .  S
C28          O41   1.263       .  A
C28        C3221   1.487       .  S
O29          C39   1.254       .  A
O29         Al31   1.895       .  S
O30          C43   1.263       .  A
O30         Al40   1.886       .  S
Al31         O44   1.950       .  S
Al31         O41   1.926       .  S
Al31         O36   1.796       .  S
O32          C39   1.256       .  A
O32         Al40   1.904       .  S
O33          C42   1.255       .  A
O33         Al40   1.895       .  S
O34         Al40   1.880       .  S
O35          C42   1.258       .  A
O36         Al40   1.779       .  S
O37          C38   1.263       .  A
C38        C3134   1.478       .  S
C39        C3158   1.474       .  S
C42        C3173   1.489       .  S
C43          O44   1.271       .  A
C43        C3197   1.474       .  S
O45          C60   1.258       .  A
O45         Al53   1.883       .  S
C46          O56   1.265       .  A
C46          O47   1.272       .  A
C46        C3053   1.477       .  S
O47         Al49   1.937       .  S
O48          C50   1.257       .  A
O48         Al49   1.877       .  S
Al49         O57   1.917       .  S
Al49         O59   1.917       .  S
Al49         O58   1.790       .  S
C50          O63   1.261       .  A
C50        C3005   1.487       .  S
O51          C61   1.256       .  A
O51         Al53   1.917       .  S
O52          C65   1.263       .  A
O52         Al62   1.877       .  S
Al53         O66   1.951       .  S
Al53         O63   1.915       .  S
Al53         O58   1.795       .  S
O54          C61   1.253       .  A
O54         Al62   1.891       .  S
O55          C64   1.252       .  A
O55         Al62   1.886       .  S
O56         Al62   1.881       .  S
O57          C64   1.257       .  A
O58         Al62   1.778       .  S
O59          C60   1.264       .  A
C60        C3038   1.484       .  S
C61        C3086   1.482       .  S
C64        C3206   1.477       .  S
C65          O66   1.272       .  A
C65        C3110   1.471       .  S
O67          C82   1.262       .  A
O67         Al75   1.910       .  S
C68          O78   1.262       .  A
C68          O69   1.261       .  A
C68        C3077   1.467       .  S
O69         Al71   1.907       .  S
O70          C72   1.260       .  A
O70         Al71   1.884       .  S
Al71         O79   1.888       .  S
Al71         O81   1.905       .  S
Al71         O80   1.768       .  S
C72          O85   1.265       .  A
C72        C2957   1.481       .  S
O73          C83   1.262       .  A
O73         Al75   1.898       .  S
O74          C87   1.261       .  A
O74         Al84   1.894       .  S
Al75         O88   1.915       .  S
Al75         O85   1.928       .  S
Al75         O80   1.780       .  S
O76          C83   1.265       .  A
O76         Al84   1.922       .  S
O77          C86   1.265       .  A
O77         Al84   1.929       .  S
O78         Al84   1.913       .  S
O79          C86   1.260       .  A
O80         Al84   1.780       .  S
O81          C82   1.262       .  A
C82        C3269   1.478       .  S
C83        C2990   1.478       .  S
C86        C2933   1.483       .  S
C87          O88   1.265       .  A
C87        C2909   1.479       .  S
O89         C104   1.257       .  A
O89         Al97   1.879       .  S
C90         O100   1.264       .  A
C90          O91   1.268       .  A
C90        C2966   1.474       .  S
O91         Al93   1.927       .  S
O92          C94   1.256       .  A
O92         Al93   1.875       .  S
Al93        O101   1.916       .  S
Al93        O103   1.907       .  S
Al93        O102   1.792       .  S
C94         O107   1.265       .  A
C94        C2885   1.486       .  S
O95         C105   1.255       .  A
O95         Al97   1.905       .  S
O96         C109   1.262       .  A
O96        Al106   1.878       .  S
Al97        O110   1.960       .  S
Al97        O107   1.931       .  S
Al97        O102   1.792       .  S
O98         C105   1.254       .  A
O98        Al106   1.891       .  S
O99         C108   1.255       .  A
O99        Al106   1.888       .  S
O100       Al106   1.886       .  S
O101        C108   1.258       .  A
O102       Al106   1.776       .  S
O103        C104   1.261       .  A
C104       C2861   1.478       .  S
C105       C3326   1.476       .  S
C108       C3101   1.480       .  S
C109        O110   1.273       .  A
C109       C3182   1.480       .  S
O111        C126   1.265       .  A
O111       Al119   1.914       .  S
C112        O122   1.259       .  A
C112        O113   1.259       .  A
C112       C3149   1.464       .  S
O113       Al115   1.892       .  S
O114        C116   1.257       .  A
O114       Al115   1.880       .  S
Al115       O123   1.874       .  S
Al115       O125   1.903       .  S
Al115       O124   1.765       .  S
C116        O129   1.263       .  A
C116       C3062   1.483       .  S
O117        C127   1.264       .  A
O117       Al119   1.896       .  S
O118        C131   1.259       .  A
O118       Al128   1.890       .  S
Al119       O132   1.915       .  S
Al119       O129   1.930       .  S
Al119       O124   1.784       .  S
O120        C127   1.266       .  A
O120       Al128   1.914       .  S
O121        C130   1.264       .  A
O121       Al128   1.929       .  S
O122       Al128   1.907       .  S
O123        C130   1.257       .  A
O124       Al128   1.784       .  S
O125        C126   1.263       .  A
C126       C2942   1.484       .  S
C127       C2846   1.477       .  S
C130       C3350   1.478       .  S
C131        O132   1.263       .  A
C131       C2813   1.482       .  S
O133        C148   1.258       .  A
O133       Al141   1.899       .  S
C134        O144   1.263       .  A
C134        O135   1.261       .  A
C134       C2693   1.469       .  S
O135       Al137   1.893       .  S
O136        C138   1.262       .  A
O136       Al137   1.894       .  S
Al137       O145   1.905       .  S
Al137       O147   1.895       .  S
Al137       O146   1.770       .  S
C138        O151   1.267       .  A
C138       C2717   1.486       .  S
O139        C149   1.259       .  A
O139       Al141   1.887       .  S
O140        C153   1.262       .  A
O140       Al150   1.888       .  S
Al141       O154   1.919       .  S
Al141       O151   1.926       .  S
Al141       O146   1.780       .  S
O142        C149   1.264       .  A
O142       Al150   1.915       .  S
O143        C152   1.265       .  A
O143       Al150   1.928       .  S
O144       Al150   1.911       .  S
O145        C152   1.263       .  A
O146       Al150   1.778       .  S
O147        C148   1.259       .  A
C148       C2765   1.464       .  S
C149       C2789   1.481       .  S
C152       C2750   1.478       .  S
C153        O154   1.265       .  A
C153       C2918   1.479   1_556  S
O155        C170   1.258       .  A
O155       Al163   1.879       .  S
C156        O166   1.265       .  A
C156        O157   1.269       .  A
C156       C2726   1.484       .  S
O157       Al159   1.933       .  S
O158        C160   1.260       .  A
O158       Al159   1.888       .  S
Al159       O167   1.917       .  S
Al159       O169   1.920       .  S
Al159       O168   1.785       .  S
C160        O173   1.268       .  A
C160       C2678   1.499       .  S
O161        C171   1.258       .  A
O161       Al163   1.911       .  S
O162        C175   1.259       .  A
O162       Al172   1.872       .  S
Al163       O176   1.970       .  S
Al163       O173   1.948       .  S
Al163       O168   1.791       .  S
O164        C171   1.257       .  A
O164       Al172   1.898       .  S
O165        C174   1.255       .  A
O165       Al172   1.890       .  S
O166       Al172   1.886       .  S
O167        C174   1.259       .  A
O168       Al172   1.775       .  S
O169        C170   1.264       .  A
C170       C3029   1.483       .  S
C171       C2630   1.477       .  S
C174       C2597   1.478       .  S
C175        O176   1.274       .  A
C175       C2645   1.478       .  S
O177        C192   1.256       .  A
O177       Al185   1.867       .  S
C178        O188   1.263       .  A
C178        O179   1.269       .  A
C178       C2549   1.481       .  S
O179       Al181   1.932       .  S
O180        C182   1.255       .  A
O180       Al181   1.871       .  S
Al181       O189   1.907       .  S
Al181       O191   1.929       .  S
Al181       O190   1.781       .  S
C182        O195   1.267       .  A
C182       C2582   1.475       .  S
O183        C193   1.254       .  A
O183       Al185   1.889       .  S
O184        C197   1.259       .  A
O184       Al194   1.877       .  S
Al185       O198   1.964       .  S
Al185       O195   1.948       .  S
Al185       O190   1.781       .  S
O186        C193   1.260       .  A
O186       Al194   1.921       .  S
O187        C196   1.261       .  A
O187       Al194   1.903       .  S
O188       Al194   1.886       .  S
O189        C196   1.260       .  A
O190       Al194   1.771       .  S
O191        C192   1.266       .  A
C192       C2870   1.479       .  S
C193       C2702   1.462       .  S
C196       C2525   1.479       .  S
C197        O198   1.273       .  A
C197       C2606   1.478       .  S
O199        C214   1.265       .  A
O199       Al207   1.925       .  S
C200        O210   1.264       .  A
C200        O201   1.258       .  A
C200       C2477   1.472       .  S
O201       Al203   1.895       .  S
O202        C204   1.261       .  A
O202       Al203   1.891       .  S
Al203       O211   1.886       .  S
Al203       O213   1.897       .  S
Al203       O212   1.770       .  S
C204        O217   1.264       .  A
C204       C2558   1.484       .  S
O205        C215   1.265       .  A
O205       Al207   1.911       .  S
O206        C219   1.263       .  A
O206       Al216   1.906       .  S
Al207       O220   1.913       .  S
Al207       O217   1.925       .  S
Al207       O212   1.786       .  S
O208        C215   1.267       .  A
O208       Al216   1.922       .  S
O209        C218   1.266       .  A
O209       Al216   1.937       .  S
O210       Al216   1.928       .  S
O211        C218   1.260       .  A
O212       Al216   1.782       .  S
O213        C214   1.261       .  A
C214       C2741   1.486       .  S
C215       C2510   1.483       .  S
C218       C2453   1.486       .  S
C219        O220   1.263       .  A
C219       C3245   1.489   1_556  S
O221        C236   1.258       .  A
O221       Al229   1.875       .  S
C222        O232   1.264       .  A
C222        O223   1.269       .  A
C222       C2405   1.470       .  S
O223       Al225   1.929       .  S
O224        C226   1.260       .  A
O224       Al225   1.896       .  S
Al225       O233   1.921       .  S
Al225       O235   1.906       .  S
Al225       O234   1.796       .  S
C226        O239   1.258       .  A
C226       C2438   1.475       .  S
O227        C237   1.257       .  A
O227       Al229   1.913       .  S
O228        C241   1.262       .  A
O228       Al238   1.880       .  S
Al229       O242   1.938       .  S
Al229       O239   1.899       .  S
Al229       O234   1.794       .  S
O230        C237   1.257       .  A
O230       Al238   1.904       .  S
O231        C240   1.254       .  A
O231       Al238   1.891       .  S
O232       Al238   1.886       .  S
O233        C240   1.258       .  A
O234       Al238   1.780       .  S
O235        C236   1.261       .  A
C236       C3125   1.473       .  S
C237       C2486   1.491       .  S
C240       C2654   1.484       .  S
C241        O242   1.269       .  A
C241       C2534   1.474       .  S
O243        C258   1.263       .  A
O243       Al251   1.914       .  S
C244        O254   1.260       .  A
C244        O245   1.263       .  A
C244       C2621   1.467       .  S
O245       Al247   1.916       .  S
O246        C248   1.261       .  A
O246       Al247   1.888       .  S
Al247       O255   1.888       .  S
Al247       O257   1.912       .  S
Al247       O256   1.770       .  S
C248        O261   1.265       .  A
C248       C2414   1.482       .  S
O249        C259   1.262       .  A
O249       Al251   1.905       .  S
O250        C263   1.259       .  A
O250       Al260   1.880       .  S
Al251       O264   1.925       .  S
Al251       O261   1.922       .  S
Al251       O256   1.777       .  S
O252        C259   1.262       .  A
O252       Al260   1.909       .  S
O253        C262   1.264       .  A
O253       Al260   1.915       .  S
O254       Al260   1.903       .  S
O255        C262   1.260       .  A
O256       Al260   1.778       .  S
O257        C258   1.262       .  A
C258       C2462   1.471       .  S
C259       C2381   1.477       .  S
C262       C2774   1.475       .  S
C263        O264   1.266       .  A
C263       C2822   1.482   1_556  S
O265        C280   1.262       .  A
O265       Al273   1.913       .  S
C266        O276   1.263       .  A
C266        O267   1.264       .  A
C266       C2318   1.473       .  S
O267       Al269   1.907       .  S
O268        C270   1.257       .  A
O268       Al269   1.874       .  S
Al269       O277   1.888       .  S
Al269       O279   1.911       .  S
Al269       O278   1.768       .  S
C270        O283   1.263       .  A
C270       C2294   1.480       .  S
O271        C281   1.262       .  A
O271       Al273   1.898       .  S
O272        C285   1.266       .  A
O272       Al282   1.908       .  S
Al273       O286   1.906       .  S
Al273       O283   1.923       .  S
Al273       O278   1.779       .  S
O274        C281   1.264       .  A
O274       Al282   1.916       .  S
O275        C284   1.263       .  A
O275       Al282   1.927       .  S
O276       Al282   1.910       .  S
O277        C284   1.259       .  A
O278       Al282   1.785       .  S
O279        C280   1.262       .  A
C280       C2342   1.472       .  S
C281       C2366   1.482       .  S
C284       C2261   1.478       .  S
C285        O286   1.264       .  A
C285       C2246   1.485       .  S
O287        C302   1.260       .  A
O287       Al295   1.916       .  S
C288        O298   1.259       .  A
C288        O289   1.260       .  A
C288       C2165   1.468       .  S
O289       Al291   1.905       .  S
O290        C292   1.271       .  A
O290       Al291   1.935       .  S
Al291       O299   1.925       .  S
Al291       O301   1.909       .  S
Al291       O300   1.782       .  S
C292        O305   1.263       .  A
C292       C2429   1.483       .  S
O293        C303   1.260       .  A
O293       Al295   1.921       .  S
O294        C307   1.266       .  A
O294       Al304   1.920       .  S
Al295       O308   1.906       .  S
Al295       O305   1.895       .  S
Al295       O300   1.788       .  S
O296        C303   1.257       .  A
O296       Al304   1.893       .  S
O297        C306   1.261       .  A
O297       Al304   1.900       .  S
O298       Al304   1.894       .  S
O299        C306   1.265       .  A
O300       Al304   1.773       .  S
O301        C302   1.261       .  A
C302       C2141   1.490       .  S
C303       C2309   1.480       .  S
C306       C2189   1.493       .  S
C307        O308   1.264       .  A
C307       C2222   1.469       .  S
O309        C324   1.255       .  A
O309       Al317   1.873       .  S
C310        O320   1.261       .  A
C310        O311   1.269       .  A
C310       C2078   1.481       .  S
O311       Al313   1.942       .  S
O312        C314   1.258       .  A
O312       Al313   1.876       .  S
Al313       O321   1.915       .  S
Al313       O323   1.933       .  S
Al313       O322   1.791       .  S
C314        O327   1.269       .  A
C314       C2573   1.495       .  S
O315        C325   1.254       .  A
O315       Al317   1.890       .  S
O316        C329   1.258       .  A
O316       Al326   1.870       .  S
Al317       O330   1.963       .  S
Al317       O327   1.947       .  S
Al317       O322   1.788       .  S
O318        C325   1.259       .  A
O318       Al326   1.910       .  S
O319        C328   1.259       .  A
O319       Al326   1.905       .  S
O320       Al326   1.874       .  S
O321        C328   1.261       .  A
O322       Al326   1.775       .  S
O323        C324   1.265       .  A
C324       C2054   1.480       .  S
C325       C2126   1.474       .  S
C328       C2102   1.479       .  S
C329        O330   1.273       .  A
C329       C2198   1.476       .  S
O331        C346   1.268       .  A
O331       Al339   1.916       .  S
C332        O342   1.259       .  A
C332        O333   1.259       .  A
C332       C2117   1.462       .  S
O333       Al335   1.890       .  S
O334        C336   1.259       .  A
O334       Al335   1.903       .  S
Al335       O343   1.894       .  S
Al335       O345   1.900       .  S
Al335       O344   1.772       .  S
C336        O349   1.261       .  A
C336       C2174   1.488       .  S
O337        C347   1.265       .  A
O337       Al339   1.899       .  S
O338        C351   1.260       .  A
O338       Al348   1.902       .  S
Al339       O352   1.912       .  S
Al339       O349   1.916       .  S
Al339       O344   1.783       .  S
O340        C347   1.269       .  A
O340       Al348   1.928       .  S
O341        C350   1.263       .  A
O341       Al348   1.920       .  S
O342       Al348   1.903       .  S
O343        C350   1.259       .  A
O344       Al348   1.786       .  S
O345        C346   1.263       .  A
C346       C2270   1.483       .  S
C347       C2021   1.475       .  S
C350       C2006   1.479       .  S
C351        O352   1.260       .  A
C351       C1973   1.484       .  S
O353        C368   1.254       .  A
O353       Al361   1.856       .  S
C354        O364   1.265       .  A
C354        O355   1.271       .  A
C354       C2285   1.470       .  S
O355       Al357   1.931       .  S
O356        C358   1.257       .  A
O356       Al357   1.879       .  S
Al357       O365   1.911       .  S
Al357       O367   1.926       .  S
Al357       O366   1.784       .  S
C358        O371   1.266       .  A
C358       C2669   1.495       .  S
O359        C369   1.253       .  A
O359       Al361   1.896       .  S
O360        C373   1.261       .  A
O360       Al370   1.871       .  S
Al361       O374   1.974       .  S
Al361       O371   1.947       .  S
Al361       O366   1.786       .  S
O362        C369   1.256       .  A
O362       Al370   1.908       .  S
O363        C372   1.255       .  A
O363       Al370   1.898       .  S
O364       Al370   1.884       .  S
O365        C372   1.258       .  A
O366       Al370   1.777       .  S
O367        C368   1.265       .  A
C368       C1925   1.478       .  S
C369       C1958   1.471       .  S
C372       C2213   1.474       .  S
C373        O374   1.277       .  A
C373       C2093   1.479       .  S
O375        C390   1.264       .  A
O375       Al383   1.916       .  S
C376        O386   1.259       .  A
C376        O377   1.261       .  A
C376       C1949   1.460       .  S
O377       Al379   1.902       .  S
O378        C380   1.259       .  A
O378       Al379   1.891       .  S
Al379       O387   1.889       .  S
Al379       O389   1.907       .  S
Al379       O388   1.768       .  S
C380        O393   1.264       .  A
C380       C2069   1.485       .  S
O381        C391   1.263       .  A
O381       Al383   1.901       .  S
O382        C395   1.261       .  A
O382       Al392   1.890       .  S
Al383       O396   1.917       .  S
Al383       O393   1.923       .  S
Al383       O388   1.781       .  S
O384        C391   1.266       .  A
O384       Al392   1.919       .  S
O385        C394   1.266       .  A
O385       Al392   1.933       .  S
O386       Al392   1.902       .  S
O387        C394   1.260       .  A
O388       Al392   1.777       .  S
O389        C390   1.263       .  A
C390       C1997   1.473       .  S
C391       C1901   1.481       .  S
C394       C2333   1.489       .  S
C395        O396   1.263       .  A
C395       C1886   1.478       .  S
O397        C412   1.258   1_554  A
O397       Al405   1.870       .  S
C398        O408   1.265       .  A
C398        O399   1.273       .  A
C398       C1814   1.477       .  S
O399       Al401   1.945       .  S
O400        C402   1.255       .  A
O400       Al401   1.877       .  S
Al401       O409   1.910       .  S
Al401       O411   1.940       .  S
Al401       O410   1.787       .  S
C402        O415   1.262       .  A
C402       C1757   1.484       .  S
O403        C413   1.261       .  A
O403       Al405   1.925       .  S
O404        C417   1.262       .  A
O404       Al414   1.875       .  S
Al405       O418   1.957       .  S
Al405       O415   1.928       .  S
Al405       O410   1.789       .  S
O406        C413   1.258       .  A
O406       Al414   1.902       .  S
O407        C416   1.253       .  A
O407       Al414   1.887       .  S
O408       Al414   1.877       .  S
O409        C416   1.256       .  A
O410       Al414   1.773       .  S
O411        C412   1.269   1_554  A
C412       C2045   1.487       .  S
C413       C1829   1.486       .  S
C416       C1790   1.475       .  S
C417        O418   1.272       .  A
C417       C1853   1.475       .  S
O419        C434   1.259       .  A
O419       Al427   1.906       .  S
C420        O430   1.263       .  A
C420        O421   1.261       .  A
C420       C1838   1.470       .  S
O421       Al423   1.912       .  S
O422        C424   1.262       .  A
O422       Al423   1.892       .  S
Al423       O431   1.885       .  S
Al423       O433   1.909       .  S
Al423       O432   1.769       .  S
C424        O437   1.266       .  A
C424       C1718   1.478       .  S
O425        C435   1.259       .  A
O425       Al427   1.886       .  S
O426        C439   1.261       .  A
O426       Al436   1.894       .  S
Al427       O440   1.910       .  S
Al427       O437   1.924       .  S
Al427       O432   1.777       .  S
O428        C435   1.263       .  A
O428       Al436   1.911       .  S
O429        C438   1.264       .  A
O429       Al436   1.916       .  S
O430       Al436   1.917       .  S
O431        C438   1.261       .  A
O432       Al436   1.779       .  S
O433        C434   1.260       .  A
C434       C1742   1.464       .  S
C435       C3374   1.472       .  S
C438       C1685   1.470       .  S
C439        O440   1.263       .  A
C439       C1877   1.481       .  S
O441        C456   1.259       .  A
O441       Al449   1.892       .  S
C442        O452   1.264       .  A
C442        O443   1.262       .  A
C442       C1670   1.473       .  S
O443       Al445   1.911       .  S
O444        C446   1.259       .  A
O444       Al445   1.887       .  S
Al445       O453   1.877       .  S
Al445       O455   1.904       .  S
Al445       O454   1.767       .  S
C446        O459   1.266       .  A
C446       C1805   1.482       .  S
O447        C457   1.258       .  A
O447       Al449   1.878       .  S
O448        C461   1.265       .  A
O448       Al458   1.908       .  S
Al449       O462   1.914       .  S
Al449       O459   1.920       .  S
Al449       O454   1.776       .  S
O450        C457   1.265       .  A
O450       Al458   1.920       .  S
O451        C460   1.267       .  A
O451       Al458   1.939       .  S
O452       Al458   1.922       .  S
O453        C460   1.259       .  A
O454       Al458   1.780       .  S
O455        C456   1.262       .  A
C456       C1694   1.477       .  S
C457       C2837   1.475       .  S
C460       C1646   1.479       .  S
C461        O462   1.265       .  A
C461       C1982   1.484       .  S
O463        C478   1.259   1_554  A
O463       Al471   1.895       .  S
C464        O474   1.268       .  A
C464        O465   1.271       .  A
C464       C1574   1.484       .  S
O465       Al467   1.932       .  S
O466        C468   1.257       .  A
O466       Al467   1.873       .  S
Al467       O475   1.904       .  S
Al467       O477   1.907       .  S
Al467       O476   1.789       .  S
C468        O481   1.265       .  A
C468       C1622   1.481       .  S
O469        C479   1.258       .  A
O469       Al471   1.923       .  S
O470        C483   1.263       .  A
O470       Al480   1.874       .  S
Al471       O484   1.950       .  S
Al471       O481   1.925       .  S
Al471       O476   1.790       .  S
O472        C479   1.256       .  A
O472       Al480   1.906       .  S
O473        C482   1.256       .  A
O473       Al480   1.905       .  S
O474       Al480   1.891       .  S
O475        C482   1.255       .  A
O476       Al480   1.781       .  S
O477        C478   1.260   1_554  A
C478       C2150   1.492       .  S
C479       C1661   1.487       .  S
C482       C1598   1.483       .  S
C483        O484   1.272       .  A
C483       C1781   1.466       .  S
O485        C500   1.255   1_554  A
O485       Al493   1.857       .  S
C486        O496   1.264       .  A
C486        O487   1.273       .  A
C486       C1709   1.482       .  S
O487       Al489   1.948       .  S
O488        C490   1.256       .  A
O488       Al489   1.879       .  S
Al489       O497   1.909       .  S
Al489       O499   1.926   1_554  S
Al489       O498   1.788       .  S
C490        O503   1.261       .  A
C490       C1541   1.485       .  S
O491        C501   1.255       .  A
O491       Al493   1.893       .  S
O492        C505   1.261       .  A
O492       Al502   1.877       .  S
Al493       O506   1.950       .  S
Al493       O503   1.915       .  S
Al493       O498   1.790       .  S
O494        C501   1.260       .  A
O494       Al502   1.915       .  S
O495        C504   1.255       .  A
O495       Al502   1.892       .  S
O496       Al502   1.870       .  S
O497        C504   1.256       .  A
O498       Al502   1.773       .  S
O499        C500   1.267       .  A
C500       C1934   1.469       .  S
C501       C1517   1.478       .  S
C504       C1862   1.478       .  S
C505        O506   1.271       .  A
C505       C1589   1.470       .  S
O507        C522   1.262       .  A
O507       Al515   1.906       .  S
C508        O518   1.262       .  A
C508        O509   1.261       .  A
C508       C1526   1.463       .  S
O509       Al511   1.903       .  S
O510        C512   1.259       .  A
O510       Al511   1.889       .  S
Al511       O519   1.898       .  S
Al511       O521   1.906       .  S
Al511       O520   1.772       .  S
C512        O525   1.264       .  A
C512       C1565   1.482       .  S
O513        C523   1.261       .  A
O513       Al515   1.901       .  S
O514        C527   1.263       .  A
O514       Al524   1.899       .  S
Al515       O528   1.918       .  S
Al515       O525   1.919       .  S
Al515       O520   1.781       .  S
O516        C523   1.264       .  A
O516       Al524   1.914       .  S
O517        C526   1.263       .  A
O517       Al524   1.920       .  S
O518       Al524   1.911       .  S
O519        C526   1.262       .  A
O520       Al524   1.779       .  S
O521        C522   1.262       .  A
C522       C1637   1.473       .  S
C523       C2981   1.486       .  S
C526       C1733   1.487       .  S
C527        O528   1.265       .  A
C527       C2237   1.482       .  S
O529        C544   1.256       .  A
O529       Al537   1.871       .  S
C530        O540   1.262       .  A
C530        O531   1.271       .  A
C530       C1430   1.476       .  S
O531       Al533   1.947       .  S
O532        C534   1.255       .  A
O532       Al533   1.867       .  S
Al533       O541   1.894       .  S
Al533       O543   1.934       .  S
Al533       O542   1.790       .  S
C534        O547   1.268       .  A
C534       C3230   1.491       .  S
O535        C545   1.257       .  A
O535       Al537   1.900       .  S
O536        C549   1.260   1_655  A
O536       Al546   1.880       .  S
Al537       O550   1.960   1_655  S
Al537       O547   1.949       .  S
Al537       O542   1.791       .  S
O538        C545   1.258       .  A
O538       Al546   1.903       .  S
O539        C548   1.256       .  A
O539       Al546   1.894       .  S
O540       Al546   1.878       .  S
O541        C548   1.255       .  A
O542       Al546   1.775       .  S
O543        C544   1.266       .  A
C544       C1397   1.483       .  S
C545       C1454   1.470   1_655  S
C548       C1478   1.464       .  S
C549        O550   1.272       .  A
C549       C1502   1.479       .  S
O551        C566   1.263       .  A
O551       Al559   1.903       .  S
C552        O562   1.261       .  A
C552        O553   1.263       .  A
C552       C1445   1.464       .  S
O553       Al555   1.907       .  S
O554        C556   1.258       .  A
O554       Al555   1.892       .  S
Al555       O563   1.901       .  S
Al555       O565   1.913       .  S
Al555       O564   1.772       .  S
C556        O569   1.260       .  A
C556       C1334   1.483       .  S
O557        C567   1.263       .  A
O557       Al559   1.904       .  S
O558        C571   1.260       .  A
O558       Al568   1.891       .  S
Al559       O572   1.925       .  S
Al559       O569   1.918       .  S
Al559       O564   1.783       .  S
O560        C567   1.264       .  A
O560       Al568   1.910       .  S
O561        C570   1.258       .  A
O561       Al568   1.900       .  S
O562       Al568   1.896       .  S
O563        C570   1.260       .  A
O564       Al568   1.783       .  S
O565        C566   1.264       .  A
C566       C1382   1.464       .  S
C567       C2357   1.478       .  S
C570       C1349   1.481       .  S
C571        O572   1.265       .  A
C571       C1310   1.485       .  S
O573        C588   1.256   1_565  A
O573       Al581   1.861       .  S
C574        O584   1.266       .  A
C574        O575   1.273       .  A
C574       C1325   1.481       .  S
O575       Al577   1.939       .  S
O576        C578   1.255       .  A
O576       Al577   1.869       .  S
Al577       O585   1.908       .  S
Al577       O587   1.922       .  S
Al577       O586   1.784       .  S
C578        O591   1.262       .  A
C578       C2894   1.476       .  S
O579        C589   1.254       .  A
O579       Al581   1.898       .  S
O580        C593   1.262       .  A
O580       Al590   1.878   1_565  S
Al581       O594   1.954       .  S
Al581       O591   1.924   1_565  S
Al581       O586   1.787   1_565  S
O582        C589   1.258       .  A
O582       Al590   1.916   1_565  S
O583        C592   1.257       .  A
O583       Al590   1.906       .  S
O584       Al590   1.885       .  S
O585        C592   1.256       .  A
O586       Al590   1.777       .  S
O587        C588   1.265       .  A
C588       C1229   1.478       .  S
C589       C1262   1.468       .  S
C592       C1493   1.482       .  S
C593        O594   1.273       .  A
C593       C1286   1.470       .  S
O595        C610   1.261       .  A
O595       Al603   1.905   1_545  S
C596        O606   1.260       .  A
C596        O597   1.263       .  A
C596       C1181   1.462       .  S
O597       Al599   1.912       .  S
O598        C600   1.259       .  A
O598       Al599   1.890       .  S
Al599       O607   1.889       .  S
Al599       O609   1.911   1_565  S
Al599       O608   1.769       .  S
C600        O613   1.266   1_565  A
C600       C1421   1.487   1_565  S
O601        C611   1.261       .  A
O601       Al603   1.890       .  S
O602        C615   1.262       .  A
O602       Al612   1.894       .  S
Al603       O616   1.921       .  S
Al603       O613   1.926   1_565  S
Al603       O608   1.778       .  S
O604        C611   1.267       .  A
O604       Al612   1.928       .  S
O605        C614   1.265       .  A
O605       Al612   1.936       .  S
O606       Al612   1.900       .  S
O607        C614   1.259       .  A
O608       Al612   1.780       .  S
O609        C610   1.262       .  A
C610       C1358   1.466       .  S
C611       C1910   1.486       .  S
C614       C1205   1.483       .  S
C615        O616   1.265       .  A
C615       C1157   1.474       .  S
O617        C632   1.258       .  A
O617       Al625   1.878       .  S
C618        O628   1.260       .  A
C618        O619   1.273       .  A
C618       C1133   1.483       .  S
O619       Al621   1.956       .  S
O620        C622   1.255       .  A
O620       Al621   1.867       .  S
Al621       O629   1.897       .  S
Al621       O631   1.940       .  S
Al621       O630   1.789       .  S
C622        O635   1.262       .  A
C622       C3014   1.471       .  S
O623        C633   1.258       .  A
O623       Al625   1.900       .  S
O624        C637   1.258       .  A
O624       Al634   1.874       .  S
Al625       O638   1.937       .  S
Al625       O635   1.922       .  S
Al625       O630   1.792       .  S
O626        C633   1.260       .  A
O626       Al634   1.909       .  S
O627        C636   1.257       .  A
O627       Al634   1.900       .  S
O628       Al634   1.870       .  S
O629        C636   1.255       .  A
O630       Al634   1.774       .  S
O631        C632   1.269       .  A
C632       C1109   1.486       .  S
C633       C1190   1.475       .  S
C636       C1277   1.471       .  S
C637        O638   1.266       .  A
C637       C1469   1.460       .  S
O639        C654   1.263       .  A
O639       Al647   1.914       .  S
C640        O650   1.264       .  A
C640        O641   1.263       .  A
C640       C1253   1.471       .  S
O641       Al643   1.909       .  S
O642        C644   1.260       .  A
O642       Al643   1.897   1_655  S
Al643       O651   1.892       .  S
Al643       O653   1.905   1_455  S
Al643       O652   1.771       .  S
C644        O657   1.262       .  A
C644       C1142   1.485       .  S
O645        C655   1.262   1_655  A
O645       Al647   1.907       .  S
O646        C659   1.267   1_455  A
O646       Al656   1.913       .  S
Al647       O660   1.910       .  S
Al647       O657   1.911       .  S
Al647       O652   1.780   1_655  S
O648        C655   1.265       .  A
O648       Al656   1.915       .  S
O649        C658   1.262       .  A
O649       Al656   1.922       .  S
O650       Al656   1.914       .  S
O651        C658   1.260       .  A
O652       Al656   1.780       .  S
O653        C654   1.263       .  A
C654       C1214   1.477       .  S
C655       C2030   1.488       .  S
C658       C1373   1.485       .  S
C659        O660   1.263       .  A
C659       C1085   1.488       .  S
O661        C676   1.263       .  A
O661       Al669   1.918       .  S
C662        O672   1.264       .  A
C662        O663   1.260       .  A
C662        C989   1.481       .  S
O663       Al665   1.904       .  S
O664        C666   1.260       .  A
O664       Al665   1.887       .  S
Al665       O673   1.881       .  S
Al665       O675   1.903       .  S
Al665       O674   1.768       .  S
C666        O679   1.265       .  A
C666       C1037   1.479       .  S
O667        C677   1.260       .  A
O667       Al669   1.886       .  S
O668        C681   1.265       .  A
O668       Al678   1.915       .  S
Al669       O682   1.902       .  S
Al669       O679   1.918       .  S
Al669       O674   1.777       .  S
O670        C677   1.267       .  A
O670       Al678   1.928       .  S
O671        C680   1.268       .  A
O671       Al678   1.943       .  S
O672       Al678   1.926       .  S
O673        C680   1.259       .  A
O674       Al678   1.781       .  S
O675        C676   1.260       .  A
C676       C1061   1.474   1_655  S
C677       C2390   1.482       .  S
C680       C1013   1.475       .  S
C681        O682   1.261       .  A
C681       C1094   1.489       .  S
O683        C698   1.254   1_545  A
O683       Al691   1.869       .  S
C684        O694   1.267       .  A
C684        O685   1.268       .  A
C684       C1046   1.480       .  S
O685       Al687   1.922       .  S
O686        C688   1.258       .  A
O686       Al687   1.873       .  S
Al687       O695   1.918       .  S
Al687       O697   1.906       .  S
Al687       O696   1.784       .  S
C688        O701   1.266       .  A
C688       C1766   1.485       .  S
O689        C699   1.252       .  A
O689       Al691   1.903       .  S
O690        C703   1.261       .  A
O690       Al700   1.865   1_545  S
Al691       O704   1.964       .  S
Al691       O701   1.933   1_545  S
Al691       O696   1.791   1_545  S
O692        C699   1.255       .  A
O692       Al700   1.906   1_545  S
O693        C702   1.258       .  A
O693       Al700   1.906       .  S
O694       Al700   1.892       .  S
O695        C702   1.260       .  A
O696       Al700   1.776       .  S
O697        C698   1.260       .  A
C698       C1238   1.469       .  S
C699        C941   1.473       .  S
C702        C917   1.486       .  S
C703        O704   1.276       .  A
C703        C965   1.475       .  S
O705        C720   1.261       .  A
O705       Al713   1.895       .  S
C706        O716   1.262       .  A
C706        O707   1.267       .  A
C706        C950   1.472       .  S
O707       Al709   1.925       .  S
O708        C710   1.259       .  A
O708       Al709   1.897       .  S
Al709       O717   1.887       .  S
Al709       O719   1.918       .  S
Al709       O718   1.770       .  S
C710        O723   1.259       .  A
C710        C878   1.484       .  S
O711        C721   1.258       .  A
O711       Al713   1.892       .  S
O712        C725   1.264       .  A
O712       Al722   1.897       .  S
Al713       O726   1.915       .  S
Al713       O723   1.903       .  S
Al713       O718   1.781       .  S
O714        C721   1.263       .  A
O714       Al722   1.919       .  S
O715        C724   1.263       .  A
O715       Al722   1.931       .  S
O716       Al722   1.901       .  S
O717        C724   1.257       .  A
O718       Al722   1.782       .  S
O719        C720   1.266       .  A
C720        C893   1.474       .  S
C721       C2798   1.469       .  S
C724       C1070   1.484       .  S
C725        O726   1.266       .  A
C725       C1301   1.480       .  S
O727        C742   1.270       .  A
O727       Al735   1.930       .  S
C728        O738   1.266       .  A
C728        O729   1.262       .  A
C728        C854   1.469       .  S
O729       Al731   1.883       .  S
O730        C732   1.254   1_545  A
O730       Al731   1.899       .  S
Al731       O739   1.901       .  S
Al731       O741   1.887       .  S
Al731       O740   1.781       .  S
C732        O745   1.252       .  A
C732        C830   1.478       .  S
O733        C743   1.264       .  A
O733       Al735   1.917   1_545  S
O734        C747   1.258       .  A
O734       Al744   1.909       .  S
Al735       O748   1.871   1_565  S
Al735       O745   1.893       .  S
Al735       O740   1.790   1_565  S
O736        C743   1.261       .  A
O736       Al744   1.887       .  S
O737        C746   1.261       .  A
O737       Al744   1.920       .  S
O738       Al744   1.933       .  S
O739        C746   1.258       .  A
O740       Al744   1.798       .  S
O741        C742   1.265   1_545  A
C742       C1022   1.485       .  S
C743       C2501   1.477       .  S
C746        C902   1.482       .  S
C747        O748   1.254       .  A
C747       C1166   1.485       .  S
O749        C764   1.256       .  A
O749       Al757   1.871       .  S
C750        O760   1.261       .  A
C750        O751   1.271       .  A
C750        C869   1.476       .  S
O751       Al753   1.945       .  S
O752        C754   1.256       .  A
O752       Al753   1.871       .  S
Al753       O761   1.907       .  S
Al753       O763   1.931       .  S
Al753       O762   1.788   1_455  S
C754        O767   1.263   1_455  A
C754       C1613   1.477       .  S
O755        C765   1.254       .  A
O755       Al757   1.890       .  S
O756        C769   1.261       .  A
O756       Al766   1.880       .  S
Al757       O770   1.945       .  S
Al757       O767   1.923       .  S
Al757       O762   1.788       .  S
O758        C765   1.258       .  A
O758       Al766   1.907       .  S
O759        C768   1.257       .  A
O759       Al766   1.898   1_455  S
O760       Al766   1.875   1_455  S
O761        C768   1.258       .  A
O762       Al766   1.774       .  S
O763        C764   1.266   1_455  A
C764       C1406   1.483       .  S
C765        C845   1.472       .  S
C768        C974   1.479       .  S
C769        O770   1.269       .  A
C769        C797   1.472       .  S
O771        C786   1.259       .  A
O771       Al779   1.885       .  S
C772        O782   1.265       .  A
C772        O773   1.273       .  A
C772        C821   1.485       .  S
O773       Al775   1.946       .  S
O774        C776   1.256       .  A
O774       Al775   1.868       .  S
Al775       O783   1.910       .  S
Al775       O785   1.923       .  S
Al775       O784   1.789       .  S
C776        O789   1.264       .  A
C776       C1550   1.472       .  S
O777        C787   1.257       .  A
O777       Al779   1.920       .  S
O778        C791   1.261       .  A
O778       Al788   1.874       .  S
Al779       O792   1.965       .  S
Al779       O789   1.930       .  S
Al779       O784   1.786       .  S
O780        C787   1.256       .  A
O780       Al788   1.904       .  S
O781        C790   1.255       .  A
O781       Al788   1.895       .  S
O782       Al788   1.885       .  S
O783        C790   1.257       .  A
O784       Al788   1.777       .  S
O785        C786   1.264       .  A
C786       C1118   1.488       .  S
C787        C998   1.480       .  S
C790        C806   1.476       .  S
C791        O792   1.275       .  A
C791        C926   1.479       .  S
C793        C794   1.404       .  A
C793        C798   1.398       .  A
C793        H803   1.084       .  S
C794        C799   1.483   1_545  S
C794        C795   1.410       .  A
C795        C796   1.403       .  A
C795        O800   1.372       .  S
C796        C797   1.402       .  A
C796        H801   1.084       .  S
C797        C798   1.408       .  A
C798        O802   1.372       .  S
C799        C804   1.408       .  A
C799        C808   1.406       .  A
O800        H816   0.992       .  S
O802        H813   0.992       .  S
C804        C805   1.393       .  A
C804        O809   1.372       .  S
C805        C806   1.402       .  A
C805        H810   1.084       .  S
C806        C807   1.409       .  A
C807        C808   1.407       .  A
C807        O811   1.371       .  S
C808        H812   1.083       .  S
O809        H814   0.992   1_565  S
O811        H815   0.991       .  S
C817        C818   1.401       .  A
C817        C822   1.402       .  A
C817        H827   1.084       .  S
C818        C823   1.476   1_554  S
C818        C819   1.405       .  A
C819        C820   1.397       .  A
C819        O824   1.372   1_554  S
C820        C821   1.407       .  A
C820        H825   1.084       .  S
C821        C822   1.413       .  A
C822        O826   1.371       .  S
C823        C828   1.406       .  A
C823        C832   1.401       .  A
O824        H840   0.991       .  S
O826        H837   0.992       .  S
C828        C829   1.403       .  A
C828        O833   1.371       .  S
C829        C830   1.407       .  A
C829        H834   1.084       .  S
C830        C831   1.409       .  A
C831        C832   1.398       .  A
C831        O835   1.372   1_565  S
C832        H836   1.084   1_556  S
O833        H838   0.992       .  S
O835        H839   0.992       .  S
C841        C842   1.401       .  A
C841        C846   1.394   1_556  A
C841        H851   1.084       .  S
C842        C847   1.475       .  S
C842        C843   1.407   1_556  A
C843        C844   1.401       .  A
C843        O848   1.371       .  S
C844        C845   1.405       .  A
C844        H849   1.084       .  S
C845        C846   1.408       .  A
C846        O850   1.372       .  S
C847        C852   1.409       .  A
C847        C856   1.401       .  A
O848        H864   0.991       .  S
O850        H861   0.992       .  S
C852        C853   1.400       .  A
C852        O857   1.372       .  S
C853        C854   1.404       .  A
C853        H858   1.084       .  S
C854        C855   1.405       .  A
C855        C856   1.395       .  A
C855        O859   1.372       .  S
C856        H860   1.084       .  S
O857        H862   0.992       .  S
O859        H863   0.991       .  S
C865        C866   1.401       .  A
C865        C870   1.394       .  A
C865        H875   1.084   1_554  S
C866        C871   1.477   1_554  S
C866        C867   1.407       .  A
C867        C868   1.404       .  A
C867        O872   1.372       .  S
C868        C869   1.404       .  A
C868        H873   1.083       .  S
C869        C870   1.410       .  A
C870        O874   1.371       .  S
C871        C876   1.407       .  A
C871        C880   1.400       .  A
O872        H888   0.991       .  S
O874        H885   0.991       .  S
C876        C877   1.399       .  A
C876        O881   1.372   1_556  S
C877        C878   1.406       .  A
C877        H882   1.083       .  S
C878        C879   1.415       .  A
C879        C880   1.399       .  A
C879        O883   1.372       .  S
C880        H884   1.084       .  S
O881        H886   0.992       .  S
O883        H887   0.992       .  S
C889        C890   1.402       .  A
C889        C894   1.398       .  A
C889        H899   1.084   1_455  S
C890        C895   1.478   1_455  S
C890        C891   1.409       .  A
C891        C892   1.403       .  A
C891        O896   1.371       .  S
C892        C893   1.403       .  A
C892        H897   1.084       .  S
C893        C894   1.407       .  A
C894        O898   1.371       .  S
C895        C900   1.409       .  A
C895        C904   1.398       .  A
O896        H912   0.992       .  S
O898        H909   0.992       .  S
C900        C901   1.409       .  A
C900        O905   1.371       .  S
C901        C902   1.407       .  A
C901        H906   1.083       .  S
C902        C903   1.413       .  A
C903        C904   1.393       .  A
C903        O907   1.372       .  S
C904        H908   1.084       .  S
O905        H910   0.991       .  S
O907        H911   0.991       .  S
C913        C914   1.402       .  A
C913        C918   1.396   1_655  A
C913        H923   1.084       .  S
C914        C919   1.487       .  S
C914        C915   1.410       .  A
C915        C916   1.407   1_655  A
C915        O920   1.371       .  S
C916        C917   1.407       .  A
C916        H921   1.083       .  S
C917        C918   1.413       .  A
C918        O922   1.372       .  S
C919        C924   1.408       .  A
C919        C928   1.407       .  A
O920        H936   0.992       .  S
O922        H933   0.992       .  S
C924        C925   1.401       .  A
C924        O929   1.373       .  S
C925        C926   1.405       .  A
C925        H930   1.084       .  S
C926        C927   1.407       .  A
C927        C928   1.405       .  A
C927        O931   1.371       .  S
C928        H932   1.083       .  S
O929        H934   0.992       .  S
O931        H935   0.991       .  S
C937        C938   1.400   1_554  A
C937        C942   1.396       .  A
C937        H947   1.084       .  S
C938        C943   1.479       .  S
C938        C939   1.409   1_556  A
C939        C940   1.406       .  A
C939        O944   1.372   1_554  S
C940        C941   1.404       .  A
C940        H945   1.084       .  S
C941        C942   1.407       .  A
C942        O946   1.371       .  S
C943        C948   1.408       .  A
C943        C952   1.405       .  A
O944        H960   0.991       .  S
O946        H957   0.992       .  S
C948        C949   1.396       .  A
C948        O953   1.372       .  S
C949        C950   1.400       .  A
C949        H954   1.084       .  S
C950        C951   1.409       .  A
C951        C952   1.404       .  A
C951        O955   1.372       .  S
C952        H956   1.084       .  S
O953        H958   0.992       .  S
O955        H959   0.992       .  S
C961        C962   1.407       .  A
C961        C966   1.405       .  A
C961        H971   1.083       .  S
C962        C967   1.487       .  S
C962        C963   1.409       .  A
C963        C964   1.396       .  A
C963        O968   1.372       .  S
C964        C965   1.404       .  A
C964        H969   1.084       .  S
C965        C966   1.407       .  A
C966        O970   1.370       .  S
C967        C972   1.410       .  A
C967        C976   1.404       .  A
O968        H984   0.991       .  S
O970        H981   0.991       .  S
C972        C973   1.408       .  A
C972        O977   1.372       .  S
C973        C974   1.406       .  A
C973        H978   1.083       .  S
C974        C975   1.409       .  A
C975        C976   1.393       .  A
C975        O979   1.372       .  S
C976        H980   1.084       .  S
O977        H982   0.992       .  S
O979        H983   0.992   1_455  S
C985        C986   1.400       .  A
C985        C990   1.397       .  A
C985        H995   1.084       .  S
C986        C991   1.481       .  S
C986        C987   1.409       .  A
C987        C988   1.409       .  A
C987        O992   1.371       .  S
C988        C989   1.406       .  A
C988        H993   1.083       .  S
C989        C990   1.411       .  A
C990        O994   1.373       .  S
C991        C996   1.406   1_556  A
C991       C1000   1.406   1_556  A
O992       H1008   0.992       .  S
O994       H1005   0.993       .  S
C996        C997   1.395       .  A
C996       O1001   1.372       .  S
C997        C998   1.403       .  A
C997       H1002   1.084       .  S
C998        C999   1.411       .  A
C999       C1000   1.410       .  A
C999       O1003   1.372       .  S
C1000      H1004   1.083   1_554  S
O1001      H1006   0.991       .  S
O1003      H1007   0.992       .  S
C1009      C1010   1.405       .  A
C1009      C1014   1.399       .  A
C1009      H1019   1.084       .  S
C1010      C1015   1.488       .  S
C1010      C1011   1.411       .  A
C1011      C1012   1.401       .  A
C1011      O1016   1.372       .  S
C1012      C1013   1.403       .  A
C1012      H1017   1.084       .  S
C1013      C1014   1.409       .  A
C1014      O1018   1.372       .  S
C1015      C1020   1.411       .  A
C1015      C1024   1.404       .  A
O1016      H1032   0.992       .  S
O1018      H1029   0.992       .  S
C1020      C1021   1.397       .  A
C1020      O1025   1.372       .  S
C1021      C1022   1.405       .  A
C1021      H1026   1.084       .  S
C1022      C1023   1.413       .  A
C1023      C1024   1.403       .  A
C1023      O1027   1.371       .  S
C1024      H1028   1.083       .  S
O1025      H1030   0.992       .  S
O1027      H1031   0.992       .  S
C1033      C1034   1.399       .  A
C1033      C1038   1.395   1_455  A
C1033      H1043   1.084   1_456  S
C1034      C1039   1.467   1_556  S
C1034      C1035   1.401       .  A
C1035      C1036   1.397       .  A
C1035      O1040   1.372       .  S
C1036      C1037   1.409   1_455  A
C1036      H1041   1.083       .  S
C1037      C1038   1.413       .  A
C1038      O1042   1.372       .  S
C1039      C1044   1.405   1_554  A
C1039      C1048   1.397       .  A
O1040      H1056   0.991       .  S
O1042      H1053   0.991       .  S
C1044      C1045   1.395   1_556  A
C1044      O1049   1.372       .  S
C1045      C1046   1.405       .  A
C1045      H1050   1.083       .  S
C1046      C1047   1.416       .  A
C1047      C1048   1.398       .  A
C1047      O1051   1.371       .  S
C1048      H1052   1.084       .  S
O1049      H1054   0.992       .  S
O1051      H1055   0.992       .  S
C1057      C1058   1.400       .  A
C1057      C1062   1.396       .  A
C1057      H1067   1.084       .  S
C1058      C1063   1.477       .  S
C1058      C1059   1.407       .  A
C1059      C1060   1.406       .  A
C1059      O1064   1.371       .  S
C1060      C1061   1.404       .  A
C1060      H1065   1.084       .  S
C1061      C1062   1.410       .  A
C1062      O1066   1.373       .  S
C1063      C1068   1.405   1_565  A
C1063      C1072   1.401   1_565  A
O1064      H1080   0.992       .  S
O1066      H1077   0.992       .  S
C1068      C1069   1.399       .  A
C1068      O1073   1.372   1_545  S
C1069      C1070   1.407       .  A
C1069      H1074   1.083       .  S
C1070      C1071   1.413       .  A
C1071      C1072   1.402       .  A
C1071      O1075   1.371       .  S
C1072      H1076   1.084   1_545  S
O1073      H1078   0.992       .  S
O1075      H1079   0.992       .  S
C1081      C1082   1.399       .  A
C1081      C1086   1.399       .  A
C1081      H1091   1.084       .  S
C1082      C1087   1.481       .  S
C1082      C1083   1.409       .  A
C1083      C1084   1.401   1_655  A
C1083      O1088   1.372   1_655  S
C1084      C1085   1.405   1_455  A
C1084      H1089   1.083       .  S
C1085      C1086   1.418       .  A
C1086      O1090   1.372       .  S
C1087      C1092   1.408       .  A
C1087      C1096   1.398       .  A
O1088      H1104   0.992       .  S
O1090      H1101   0.992       .  S
C1092      C1093   1.405       .  A
C1092      O1097   1.371       .  S
C1093      C1094   1.407       .  A
C1093      H1098   1.083       .  S
C1094      C1095   1.417       .  A
C1095      C1096   1.396       .  A
C1095      O1099   1.372       .  S
C1096      H1100   1.084   1_655  S
O1097      H1102   0.992       .  S
O1099      H1103   0.992   1_655  S
C1105      C1106   1.402       .  A
C1105      C1110   1.401       .  A
C1105      H1115   1.083       .  S
C1106      C1111   1.490       .  S
C1106      C1107   1.412       .  A
C1107      C1108   1.404       .  A
C1107      O1112   1.371       .  S
C1108      C1109   1.404       .  A
C1108      H1113   1.083       .  S
C1109      C1110   1.414       .  A
C1110      O1114   1.372       .  S
C1111      C1116   1.411       .  A
C1111      C1120   1.402       .  A
O1112      H1128   0.992       .  S
O1114      H1125   0.991       .  S
C1116      C1117   1.407       .  A
C1116      O1121   1.372       .  S
C1117      C1118   1.407       .  A
C1117      H1122   1.084       .  S
C1118      C1119   1.413       .  A
C1119      C1120   1.398       .  A
C1119      O1123   1.372       .  S
C1120      H1124   1.084       .  S
O1121      H1126   0.992       .  S
O1123      H1127   0.992       .  S
C1129      C1130   1.405       .  A
C1129      C1134   1.406       .  A
C1129      H1139   1.083       .  S
C1130      C1135   1.482       .  S
C1130      C1131   1.406       .  A
C1131      C1132   1.396       .  A
C1131      O1136   1.373       .  S
C1132      C1133   1.406       .  A
C1132      H1137   1.084       .  S
C1133      C1134   1.411       .  A
C1134      O1138   1.371       .  S
C1135      C1140   1.406       .  A
C1135      C1144   1.403       .  A
O1136      H1152   0.992       .  S
O1138      H1149   0.992       .  S
C1140      C1141   1.398       .  A
C1140      O1145   1.371       .  S
C1141      C1142   1.408       .  A
C1141      H1146   1.083       .  S
C1142      C1143   1.413       .  A
C1143      C1144   1.402       .  A
C1143      O1147   1.372       .  S
C1144      H1148   1.084       .  S
O1145      H1150   0.991       .  S
O1147      H1151   0.992       .  S
C1153      C1154   1.404       .  A
C1153      C1158   1.398       .  A
C1153      H1163   1.083       .  S
C1154      C1159   1.481   1_565  S
C1154      C1155   1.408   1_565  A
C1155      C1156   1.399   1_545  A
C1155      O1160   1.372       .  S
C1156      C1157   1.404       .  A
C1156      H1161   1.084       .  S
C1157      C1158   1.408       .  A
C1158      O1162   1.372       .  S
C1159      C1164   1.406   1_545  A
C1159      C1168   1.404       .  A
O1160      H1176   0.992   1_545  S
O1162      H1173   0.992       .  S
C1164      C1165   1.396       .  A
C1164      O1169   1.373       .  S
C1165      C1166   1.407   1_565  A
C1165      H1170   1.083       .  S
C1166      C1167   1.413       .  A
C1167      C1168   1.402       .  A
C1167      O1171   1.371       .  S
C1168      H1172   1.084       .  S
O1169      H1174   0.992       .  S
O1171      H1175   0.992       .  S
C1177      C1178   1.405       .  A
C1177      C1182   1.400       .  A
C1177      H1187   1.083       .  S
C1178      C1183   1.480       .  S
C1178      C1179   1.409       .  A
C1179      C1180   1.398       .  A
C1179      O1184   1.371       .  S
C1180      C1181   1.399       .  A
C1180      H1185   1.084       .  S
C1181      C1182   1.406       .  A
C1182      O1186   1.372       .  S
C1183      C1188   1.408       .  A
C1183      C1192   1.402       .  A
O1184      H1200   0.992       .  S
O1186      H1197   0.991       .  S
C1188      C1189   1.406       .  A
C1188      O1193   1.372       .  S
C1189      C1190   1.406       .  A
C1189      H1194   1.083       .  S
C1190      C1191   1.408       .  A
C1191      C1192   1.393       .  A
C1191      O1195   1.372       .  S
C1192      H1196   1.084       .  S
O1193      H1198   0.992       .  S
O1195      H1199   0.992       .  S
C1201      C1202   1.402       .  A
C1201      C1206   1.404       .  A
C1201      H1211   1.084       .  S
C1202      C1207   1.476       .  S
C1202      C1203   1.405       .  A
C1203      C1204   1.397       .  A
C1203      O1208   1.372       .  S
C1204      C1205   1.406       .  A
C1204      H1209   1.084       .  S
C1205      C1206   1.413       .  A
C1206      O1210   1.371       .  S
C1207      C1212   1.407       .  A
C1207      C1216   1.399       .  A
O1208      H1224   0.991       .  S
O1210      H1221   0.992       .  S
C1212      C1213   1.407       .  A
C1212      O1217   1.371       .  S
C1213      C1214   1.406       .  A
C1213      H1218   1.083       .  S
C1214      C1215   1.410       .  A
C1215      C1216   1.395       .  A
C1215      O1219   1.373       .  S
C1216      H1220   1.084       .  S
O1217      H1222   0.992       .  S
O1219      H1223   0.992       .  S
C1225      C1226   1.405   1_545  A
C1225      C1230   1.401       .  A
C1225      H1235   1.084       .  S
C1226      C1231   1.474       .  S
C1226      C1227   1.402       .  A
C1227      C1228   1.394       .  A
C1227      O1232   1.373       .  S
C1228      C1229   1.407   1_565  A
C1228      H1233   1.084       .  S
C1229      C1230   1.410       .  A
C1230      O1234   1.372       .  S
C1231      C1236   1.408       .  A
C1231      C1240   1.400   1_565  A
O1232      H1248   0.992       .  S
O1234      H1245   0.992       .  S
C1236      C1237   1.398       .  A
C1236      O1241   1.372       .  S
C1237      C1238   1.402       .  A
C1237      H1242   1.084       .  S
C1238      C1239   1.409   1_565  A
C1239      C1240   1.397       .  A
C1239      O1243   1.372       .  S
C1240      H1244   1.084       .  S
O1241      H1246   0.992       .  S
O1243      H1247   0.992       .  S
C1249      C1250   1.402       .  A
C1249      C1254   1.397       .  A
C1249      H1259   1.084       .  S
C1250      C1255   1.478       .  S
C1250      C1251   1.408       .  A
C1251      C1252   1.404       .  A
C1251      O1256   1.372       .  S
C1252      C1253   1.403       .  A
C1252      H1257   1.084       .  S
C1253      C1254   1.408       .  A
C1254      O1258   1.372       .  S
C1255      C1260   1.409       .  A
C1255      C1264   1.405       .  A
O1256      H1272   0.992       .  S
O1258      H1269   0.994       .  S
C1260      C1261   1.396       .  A
C1260      O1265   1.372       .  S
C1261      C1262   1.400       .  A
C1261      H1266   1.084       .  S
C1262      C1263   1.407       .  A
C1263      C1264   1.403       .  A
C1263      O1267   1.371       .  S
C1264      H1268   1.083       .  S
O1265      H1270   0.992       .  S
O1267      H1271   0.992       .  S
C1273      C1274   1.406       .  A
C1273      C1278   1.395       .  A
C1273      H1283   1.083       .  S
C1274      C1279   1.488       .  S
C1274      C1275   1.412       .  A
C1275      C1276   1.404       .  A
C1275      O1280   1.371       .  S
C1276      C1277   1.404       .  A
C1276      H1281   1.084       .  S
C1277      C1278   1.405       .  A
C1278      O1282   1.372       .  S
C1279      C1284   1.410   1_655  A
C1279      C1288   1.408   1_655  A
O1280      H1296   0.991       .  S
O1282      H1293   0.992       .  S
C1284      C1285   1.400       .  A
C1284      O1289   1.374       .  S
C1285      C1286   1.402       .  A
C1285      H1290   1.084       .  S
C1286      C1287   1.404       .  A
C1287      C1288   1.402       .  A
C1287      O1291   1.371       .  S
C1288      H1292   1.083   1_455  S
O1289      H1294   0.992       .  S
O1291      H1295   0.992       .  S
C1297      C1298   1.404       .  A
C1297      C1302   1.400       .  A
C1297      H1307   1.083       .  S
C1298      C1303   1.482       .  S
C1298      C1299   1.407       .  A
C1299      C1300   1.397       .  A
C1299      O1304   1.372       .  S
C1300      C1301   1.407       .  A
C1300      H1305   1.084       .  S
C1301      C1302   1.410       .  A
C1302      O1306   1.372       .  S
C1303      C1308   1.406       .  A
C1303      C1312   1.403       .  A
O1304      H1320   0.992       .  S
O1306      H1317   0.992       .  S
C1308      C1309   1.400       .  A
C1308      O1313   1.372       .  S
C1309      C1310   1.407       .  A
C1309      H1314   1.083       .  S
C1310      C1311   1.413       .  A
C1311      C1312   1.398       .  A
C1311      O1315   1.371       .  S
C1312      H1316   1.084       .  S
O1313      H1318   0.992       .  S
O1315      H1319   0.992       .  S
C1321      C1322   1.402       .  A
C1321      C1326   1.397       .  A
C1321      H1331   1.084       .  S
C1322      C1327   1.480       .  S
C1322      C1323   1.407       .  A
C1323      C1324   1.402       .  A
C1323      O1328   1.373       .  S
C1324      C1325   1.406       .  A
C1324      H1329   1.083       .  S
C1325      C1326   1.412       .  A
C1326      O1330   1.372       .  S
C1327      C1332   1.408       .  A
C1327      C1336   1.402       .  A
O1328      H1344   0.992       .  S
O1330      H1341   0.992       .  S
C1332      C1333   1.399       .  A
C1332      O1337   1.372       .  S
C1333      C1334   1.405       .  A
C1333      H1338   1.083       .  S
C1334      C1335   1.413       .  A
C1335      C1336   1.401       .  A
C1335      O1339   1.371       .  S
C1336      H1340   1.084       .  S
O1337      H1342   0.991       .  S
O1339      H1343   0.992       .  S
C1345      C1346   1.399       .  A
C1345      C1350   1.398   1_655  A
C1345      H1355   1.084       .  S
C1346      C1351   1.474       .  S
C1346      C1347   1.406       .  A
C1347      C1348   1.400   1_655  A
C1347      O1352   1.371       .  S
C1348      C1349   1.405       .  A
C1348      H1353   1.084       .  S
C1349      C1350   1.415       .  A
C1350      O1354   1.372       .  S
C1351      C1356   1.407       .  A
C1351      C1360   1.401       .  A
O1352      H1368   0.992       .  S
O1354      H1365   0.992       .  S
C1356      C1357   1.402       .  A
C1356      O1361   1.371       .  S
C1357      C1358   1.403       .  A
C1357      H1362   1.084       .  S
C1358      C1359   1.406       .  A
C1359      C1360   1.395       .  A
C1359      O1363   1.372       .  S
C1360      H1364   1.084       .  S
O1361      H1366   0.992       .  S
O1363      H1367   0.992       .  S
C1369      C1370   1.401   1_565  A
C1369      C1374   1.403       .  A
C1369      H1379   1.084       .  S
C1370      C1375   1.478       .  S
C1370      C1371   1.406   1_545  A
C1371      C1372   1.397       .  A
C1371      O1376   1.372   1_565  S
C1372      C1373   1.405       .  A
C1372      H1377   1.083       .  S
C1373      C1374   1.416       .  A
C1374      O1378   1.372       .  S
C1375      C1380   1.408       .  A
C1375      C1384   1.404       .  A
O1376      H1392   0.991       .  S
O1378      H1389   0.998       .  S
C1380      C1381   1.400       .  A
C1380      O1385   1.371       .  S
C1381      C1382   1.400       .  A
C1381      H1386   1.084       .  S
C1382      C1383   1.406       .  A
C1383      C1384   1.400       .  A
C1383      O1387   1.373       .  S
C1384      H1388   1.084       .  S
O1385      H1390   0.991       .  S
O1387      H1391   0.992       .  S
C1393      C1394   1.407       .  A
C1393      C1398   1.404       .  A
C1393      H1403   1.083       .  S
C1394      C1399   1.487       .  S
C1394      C1395   1.407       .  A
C1395      C1396   1.397       .  A
C1395      O1400   1.372   1_655  S
C1396      C1397   1.407       .  A
C1396      H1401   1.084   1_655  S
C1397      C1398   1.409       .  A
C1398      O1402   1.371       .  S
C1399      C1404   1.406       .  A
C1399      C1408   1.407   1_655  A
O1400      H1416   0.992       .  S
O1402      H1413   0.992       .  S
C1404      C1405   1.399       .  A
C1404      O1409   1.372       .  S
C1405      C1406   1.408       .  A
C1405      H1410   1.084       .  S
C1406      C1407   1.409   1_655  A
C1407      C1408   1.403       .  A
C1407      O1411   1.371       .  S
C1408      H1412   1.083       .  S
O1409      H1414   0.992       .  S
O1411      H1415   0.992       .  S
C1417      C1418   1.402       .  A
C1417      C1422   1.401       .  A
C1417      H1427   1.084       .  S
C1418      C1423   1.482       .  S
C1418      C1419   1.406       .  A
C1419      C1420   1.402       .  A
C1419      O1424   1.373       .  S
C1420      C1421   1.407       .  A
C1420      H1425   1.083       .  S
C1421      C1422   1.415       .  A
C1422      O1426   1.372   1_545  S
C1423      C1428   1.408       .  A
C1423      C1432   1.406       .  A
O1424      H1440   0.992       .  S
O1426      H1437   0.992       .  S
C1428      C1429   1.397       .  A
C1428      O1433   1.373       .  S
C1429      C1430   1.402       .  A
C1429      H1434   1.081       .  S
C1430      C1431   1.409       .  A
C1431      C1432   1.404       .  A
C1431      O1435   1.371       .  S
C1432      H1436   1.084       .  S
O1433      H1438   0.992       .  S
O1435      H1439   0.991       .  S
C1441      C1442   1.402       .  A
C1441      C1446   1.394       .  A
C1441      H1451   1.084       .  S
C1442      C1447   1.477       .  S
C1442      C1443   1.410       .  A
C1443      C1444   1.403       .  A
C1443      O1448   1.371       .  S
C1444      C1445   1.402       .  A
C1444      H1449   1.084       .  S
C1445      C1446   1.404       .  A
C1446      O1450   1.372       .  S
C1447      C1452   1.409       .  A
C1447      C1456   1.401       .  A
O1448      H1464   0.992       .  S
O1450      H1461   0.992       .  S
C1452      C1453   1.403       .  A
C1452      O1457   1.372       .  S
C1453      C1454   1.402       .  A
C1453      H1458   1.084       .  S
C1454      C1455   1.407   1_455  A
C1455      C1456   1.397   1_655  A
C1455      O1459   1.372       .  S
C1456      H1460   1.084       .  S
O1457      H1462   0.992       .  S
O1459      H1463   0.991       .  S
C1465      C1466   1.405       .  A
C1465      C1470   1.400       .  A
C1465      H1475   1.084       .  S
C1466      C1471   1.475       .  S
C1466      C1467   1.406       .  A
C1467      C1468   1.395       .  A
C1467      O1472   1.371       .  S
C1468      C1469   1.399       .  A
C1468      H1473   1.083       .  S
C1469      C1470   1.405       .  A
C1470      O1474   1.372       .  S
C1471      C1476   1.406   1_565  A
C1471      C1480   1.403   1_565  A
O1472      H1488   0.992       .  S
O1474      H1485   0.993       .  S
C1476      C1477   1.402       .  A
C1476      O1481   1.372       .  S
C1477      C1478   1.404       .  A
C1477      H1482   1.084       .  S
C1478      C1479   1.404       .  A
C1479      C1480   1.394       .  A
C1479      O1483   1.372       .  S
C1480      H1484   1.084   1_545  S
O1481      H1486   0.992       .  S
O1483      H1487   0.992       .  S
C1489      C1490   1.406       .  A
C1489      C1494   1.409       .  A
C1489      H1499   1.083       .  S
C1490      C1495   1.489       .  S
C1490      C1491   1.410       .  A
C1491      C1492   1.396       .  A
C1491      O1496   1.372       .  S
C1492      C1493   1.402       .  A
C1492      H1497   1.084       .  S
C1493      C1494   1.412       .  A
C1494      O1498   1.372       .  S
C1495      C1500   1.411       .  A
C1495      C1504   1.404       .  A
O1496      H1512   0.992       .  S
O1498      H1509   0.992       .  S
C1500      C1501   1.407       .  A
C1500      O1505   1.372       .  S
C1501      C1502   1.404       .  A
C1501      H1506   1.083       .  S
C1502      C1503   1.409       .  A
C1503      C1504   1.399       .  A
C1503      O1507   1.372   1_455  S
C1504      H1508   1.084       .  S
O1505      H1510   0.992       .  S
O1507      H1511   0.992       .  S
C1513      C1514   1.401       .  A
C1513      C1518   1.403       .  A
C1513      H1523   1.083       .  S
C1514      C1519   1.473       .  S
C1514      C1515   1.405       .  A
C1515      C1516   1.394       .  A
C1515      O1520   1.372       .  S
C1516      C1517   1.404       .  A
C1516      H1521   1.084       .  S
C1517      C1518   1.413       .  A
C1518      O1522   1.372       .  S
C1519      C1524   1.408       .  A
C1519      C1528   1.400       .  A
O1520      H1536   0.992       .  S
O1522      H1533   0.992       .  S
C1524      C1525   1.401       .  A
C1524      O1529   1.371       .  S
C1525      C1526   1.402       .  A
C1525      H1530   1.084       .  S
C1526      C1527   1.406       .  A
C1527      C1528   1.396       .  A
C1527      O1531   1.372       .  S
C1528      H1532   1.084       .  S
O1529      H1534   0.992       .  S
O1531      H1535   0.991       .  S
C1537      C1538   1.400       .  A
C1537      C1542   1.396       .  A
C1537      H1547   1.084       .  S
C1538      C1543   1.478       .  S
C1538      C1539   1.405       .  A
C1539      C1540   1.405       .  A
C1539      O1544   1.371       .  S
C1540      C1541   1.409       .  A
C1540      H1545   1.083       .  S
C1541      C1542   1.413       .  A
C1542      O1546   1.372       .  S
C1543      C1548   1.409       .  A
C1543      C1552   1.401       .  A
O1544      H1560   0.991       .  S
O1546      H1557   0.992       .  S
C1548      C1549   1.405       .  A
C1548      O1553   1.371       .  S
C1549      C1550   1.403       .  A
C1549      H1554   1.084       .  S
C1550      C1551   1.408       .  A
C1551      C1552   1.396       .  A
C1551      O1555   1.372       .  S
C1552      H1556   1.084       .  S
O1553      H1558   0.992       .  S
O1555      H1559   0.992       .  S
C1561      C1562   1.401       .  A
C1561      C1566   1.397       .  A
C1561      H1571   1.084       .  S
C1562      C1567   1.474       .  S
C1562      C1563   1.404       .  A
C1563      C1564   1.400       .  A
C1563      O1568   1.372       .  S
C1564      C1565   1.408       .  A
C1564      H1569   1.083       .  S
C1565      C1566   1.413       .  A
C1566      O1570   1.372       .  S
C1567      C1572   1.406       .  A
C1567      C1576   1.400       .  A
O1568      H1584   0.991       .  S
O1570      H1581   0.992       .  S
C1572      C1573   1.396       .  A
C1572      O1577   1.372       .  S
C1573      C1574   1.405       .  A
C1573      H1578   1.083       .  S
C1574      C1575   1.416       .  A
C1575      C1576   1.402       .  A
C1575      O1579   1.371       .  S
C1576      H1580   1.084       .  S
O1577      H1582   0.992       .  S
O1579      H1583   0.992       .  S
C1585      C1586   1.404       .  A
C1585      C1590   1.401       .  A
C1585      H1595   1.084       .  S
C1586      C1591   1.475       .  S
C1586      C1587   1.405   1_554  A
C1587      C1588   1.398   1_556  A
C1587      O1592   1.371       .  S
C1588      C1589   1.404       .  A
C1588      H1593   1.084   1_554  S
C1589      C1590   1.407       .  A
C1590      O1594   1.371       .  S
C1591      C1596   1.405       .  A
C1591      C1600   1.400       .  A
O1592      H1608   0.992       .  S
O1594      H1605   0.991       .  S
C1596      C1597   1.404       .  A
C1596      O1601   1.371   1_554  S
C1597      C1598   1.408       .  A
C1597      H1602   1.083   1_554  S
C1598      C1599   1.412       .  A
C1599      C1600   1.396       .  A
C1599      O1603   1.372       .  S
C1600      H1604   1.084       .  S
O1601      H1606   0.991       .  S
O1603      H1607   0.992       .  S
C1609      C1610   1.404       .  A
C1609      C1614   1.406       .  A
C1609      H1619   1.083       .  S
C1610      C1615   1.479       .  S
C1610      C1611   1.406       .  A
C1611      C1612   1.396       .  A
C1611      O1616   1.372       .  S
C1612      C1613   1.403       .  A
C1612      H1617   1.084       .  S
C1613      C1614   1.412       .  A
C1614      O1618   1.372   1_455  S
C1615      C1620   1.406       .  A
C1615      C1624   1.403       .  A
O1616      H1632   0.992       .  S
O1618      H1629   0.992       .  S
C1620      C1621   1.398       .  A
C1620      O1625   1.372       .  S
C1621      C1622   1.407       .  A
C1621      H1626   1.084       .  S
C1622      C1623   1.410       .  A
C1623      C1624   1.404       .  A
C1623      O1627   1.371       .  S
C1624      H1628   1.083       .  S
O1625      H1630   0.992       .  S
O1627      H1631   0.991       .  S
C1633      C1634   1.400       .  A
C1633      C1638   1.395       .  A
C1633      H1643   1.084       .  S
C1634      C1639   1.472       .  S
C1634      C1635   1.406       .  A
C1635      C1636   1.403       .  A
C1635      O1640   1.371       .  S
C1636      C1637   1.404       .  A
C1636      H1641   1.084       .  S
C1637      C1638   1.410       .  A
C1638      O1642   1.373       .  S
C1639      C1644   1.404       .  A
C1639      C1648   1.401       .  A
O1640      H1656   0.992       .  S
O1642      H1653   0.992       .  S
C1644      C1645   1.394       .  A
C1644      O1649   1.372       .  S
C1645      C1646   1.405       .  A
C1645      H1650   1.084       .  S
C1646      C1647   1.413       .  A
C1647      C1648   1.403       .  A
C1647      O1651   1.371       .  S
C1648      H1652   1.083       .  S
O1649      H1654   0.992       .  S
O1651      H1655   0.992       .  S
C1657      C1658   1.406       .  A
C1657      C1662   1.409       .  A
C1657      H1667   1.083       .  S
C1658      C1663   1.486       .  S
C1658      C1659   1.407       .  A
C1659      C1660   1.399       .  A
C1659      O1664   1.372       .  S
C1660      C1661   1.406       .  A
C1660      H1665   1.084       .  S
C1661      C1662   1.410       .  A
C1662      O1666   1.371       .  S
C1663      C1668   1.411       .  A
C1663      C1672   1.402       .  A
O1664      H1680   0.992       .  S
O1666      H1677   0.992       .  S
C1668      C1669   1.406       .  A
C1668      O1673   1.371       .  S
C1669      C1670   1.403       .  A
C1669      H1674   1.084       .  S
C1670      C1671   1.408       .  A
C1671      C1672   1.399       .  A
C1671      O1675   1.372       .  S
C1672      H1676   1.084       .  S
O1673      H1678   0.992       .  S
O1675      H1679   0.992       .  S
C1681      C1682   1.402       .  A
C1681      C1686   1.393       .  A
C1681      H1691   1.084       .  S
C1682      C1687   1.468       .  S
C1682      C1683   1.404       .  A
C1683      C1684   1.397       .  A
C1683      O1688   1.372       .  S
C1684      C1685   1.406       .  A
C1684      H1689   1.084       .  S
C1685      C1686   1.409       .  A
C1686      O1690   1.372       .  S
C1687      C1692   1.405       .  A
C1687      C1696   1.400       .  A
O1688      H1704   0.992       .  S
O1690      H1701   0.992       .  S
C1692      C1693   1.389       .  A
C1692      O1697   1.373       .  S
C1693      C1694   1.404       .  A
C1693      H1698   1.084       .  S
C1694      C1695   1.414       .  A
C1695      C1696   1.401       .  A
C1695      O1699   1.370       .  S
C1696      H1700   1.083       .  S
O1697      H1702   0.992       .  S
O1699      H1703   0.992       .  S
C1705      C1706   1.404       .  A
C1705      C1710   1.406       .  A
C1705      H1715   1.083       .  S
C1706      C1711   1.477       .  S
C1706      C1707   1.405       .  A
C1707      C1708   1.392       .  A
C1707      O1712   1.373       .  S
C1708      C1709   1.405       .  A
C1708      H1713   1.084       .  S
C1709      C1710   1.413       .  A
C1710      O1714   1.371       .  S
C1711      C1716   1.407       .  A
C1711      C1720   1.402       .  A
O1712      H1728   0.992       .  S
O1714      H1725   0.992       .  S
C1716      C1717   1.397       .  A
C1716      O1721   1.371       .  S
C1717      C1718   1.405       .  A
C1717      H1722   1.084       .  S
C1718      C1719   1.411       .  A
C1719      C1720   1.401       .  A
C1719      O1723   1.373       .  S
C1720      H1724   1.084       .  S
O1721      H1726   0.991       .  S
O1723      H1727   0.992       .  S
C1729      C1730   1.399       .  A
C1729      C1734   1.402       .  A
C1729      H1739   1.084       .  S
C1730      C1735   1.476       .  S
C1730      C1731   1.406       .  A
C1731      C1732   1.399       .  A
C1731      O1736   1.372       .  S
C1732      C1733   1.407       .  A
C1732      H1737   1.083       .  S
C1733      C1734   1.416       .  A
C1734      O1738   1.372       .  S
C1735      C1740   1.407       .  A
C1735      C1744   1.402       .  A
O1736      H1752   0.991       .  S
O1738      H1749   0.992       .  S
C1740      C1741   1.402       .  A
C1740      O1745   1.371       .  S
C1741      C1742   1.402       .  A
C1741      H1746   1.084       .  S
C1742      C1743   1.405       .  A
C1743      C1744   1.397       .  A
C1743      O1747   1.373       .  S
C1744      H1748   1.084       .  S
O1745      H1750   0.992       .  S
O1747      H1751   0.992       .  S
C1753      C1754   1.402       .  A
C1753      C1758   1.396       .  A
C1753      H1763   1.084       .  S
C1754      C1759   1.484       .  S
C1754      C1755   1.409       .  A
C1755      C1756   1.408       .  A
C1755      O1760   1.371       .  S
C1756      C1757   1.408       .  A
C1756      H1761   1.083       .  S
C1757      C1758   1.412       .  A
C1758      O1762   1.372       .  S
C1759      C1764   1.406       .  A
C1759      C1768   1.406       .  A
O1760      H1776   0.992       .  S
O1762      H1773   0.992       .  S
C1764      C1765   1.396       .  A
C1764      O1769   1.373       .  S
C1765      C1766   1.406       .  A
C1765      H1770   1.084       .  S
C1766      C1767   1.411       .  A
C1767      C1768   1.409       .  A
C1767      O1771   1.371       .  S
C1768      H1772   1.083       .  S
O1769      H1774   0.992       .  S
O1771      H1775   0.992       .  S
C1777      C1778   1.407       .  A
C1777      C1782   1.403       .  A
C1777      H1787   1.083       .  S
C1778      C1783   1.484       .  S
C1778      C1779   1.409       .  A
C1779      C1780   1.396       .  A
C1779      O1784   1.371   1_554  S
C1780      C1781   1.400       .  A
C1780      H1785   1.084   1_554  S
C1781      C1782   1.405       .  A
C1782      O1786   1.372       .  S
C1783      C1788   1.409       .  A
C1783      C1792   1.403       .  A
O1784      H1800   0.991       .  S
O1786      H1797   0.991       .  S
C1788      C1789   1.407       .  A
C1788      O1793   1.372       .  S
C1789      C1790   1.405       .  A
C1789      H1794   1.084       .  S
C1790      C1791   1.408       .  A
C1791      C1792   1.393       .  A
C1791      O1795   1.372       .  S
C1792      H1796   1.084       .  S
O1793      H1798   0.992       .  S
O1795      H1799   0.991       .  S
C1801      C1802   1.401       .  A
C1801      C1806   1.399       .  A
C1801      H1811   1.084       .  S
C1802      C1807   1.475       .  S
C1802      C1803   1.404       .  A
C1803      C1804   1.398       .  A
C1803      O1808   1.372       .  S
C1804      C1805   1.406       .  A
C1804      H1809   1.083       .  S
C1805      C1806   1.415       .  A
C1806      O1810   1.372       .  S
C1807      C1812   1.406       .  A
C1807      C1816   1.402       .  A
O1808      H1824   0.992       .  S
O1810      H1821   0.992       .  S
C1812      C1813   1.395       .  A
C1812      O1817   1.372       .  S
C1813      C1814   1.405       .  A
C1813      H1818   1.084       .  S
C1814      C1815   1.411       .  A
C1815      C1816   1.402       .  A
C1815      O1819   1.371       .  S
C1816      H1820   1.084       .  S
O1817      H1822   0.992       .  S
O1819      H1823   0.992       .  S
C1825      C1826   1.405       .  A
C1825      C1830   1.409       .  A
C1825      H1835   1.083       .  S
C1826      C1831   1.482       .  S
C1826      C1827   1.404       .  A
C1827      C1828   1.395       .  A
C1827      O1832   1.372       .  S
C1828      C1829   1.407       .  A
C1828      H1833   1.084       .  S
C1829      C1830   1.412       .  A
C1830      O1834   1.371       .  S
C1831      C1836   1.409       .  A
C1831      C1840   1.403       .  A
O1832      H1848   0.992       .  S
O1834      H1845   0.992       .  S
C1836      C1837   1.401       .  A
C1836      O1841   1.371       .  S
C1837      C1838   1.400       .  A
C1837      H1842   1.084       .  S
C1838      C1839   1.409       .  A
C1839      C1840   1.402       .  A
C1839      O1843   1.372       .  S
C1840      H1844   1.084       .  S
O1841      H1846   0.991       .  S
O1843      H1847   0.992       .  S
C1849      C1850   1.403   1_556  A
C1849      C1854   1.397       .  A
C1849      H1859   1.084       .  S
C1850      C1855   1.487       .  S
C1850      C1851   1.412       .  A
C1851      C1852   1.405       .  A
C1851      O1856   1.372       .  S
C1852      C1853   1.403       .  A
C1852      H1857   1.084       .  S
C1853      C1854   1.408   1_554  A
C1854      O1858   1.373       .  S
C1855      C1860   1.411       .  A
C1855      C1864   1.407       .  A
O1856      H1872   0.992       .  S
O1858      H1869   0.991       .  S
C1860      C1861   1.391       .  A
C1860      O1865   1.373       .  S
C1861      C1862   1.401       .  A
C1861      H1866   1.084       .  S
C1862      C1863   1.411       .  A
C1863      C1864   1.408       .  A
C1863      O1867   1.371       .  S
C1864      H1868   1.083   1_554  S
O1865      H1870   0.992       .  S
O1867      H1871   0.992       .  S
C1873      C1874   1.399       .  A
C1873      C1878   1.396       .  A
C1873      H1883   1.084       .  S
C1874      C1879   1.473       .  S
C1874      C1875   1.406       .  A
C1875      C1876   1.400       .  A
C1875      O1880   1.372       .  S
C1876      C1877   1.407       .  A
C1876      H1881   1.083       .  S
C1877      C1878   1.414       .  A
C1878      O1882   1.372       .  S
C1879      C1884   1.405       .  A
C1879      C1888   1.400       .  A
O1880      H1896   0.992       .  S
O1882      H1893   0.992       .  S
C1884      C1885   1.396       .  A
C1884      O1889   1.372       .  S
C1885      C1886   1.405       .  A
C1885      H1890   1.084       .  S
C1886      C1887   1.414       .  A
C1887      C1888   1.400       .  A
C1887      O1891   1.372       .  S
C1888      H1892   1.084       .  S
O1889      H1894   0.991       .  S
O1891      H1895   0.992       .  S
C1897      C1898   1.399       .  A
C1897      C1902   1.397       .  A
C1897      H1907   1.084       .  S
C1898      C1903   1.476       .  S
C1898      C1899   1.406       .  A
C1899      C1900   1.403       .  A
C1899      O1904   1.372       .  S
C1900      C1901   1.408       .  A
C1900      H1905   1.084       .  S
C1901      C1902   1.411       .  A
C1902      O1906   1.372       .  S
C1903      C1908   1.406       .  A
C1903      C1912   1.400       .  A
O1904      H1920   0.992       .  S
O1906      H1917   0.992       .  S
C1908      C1909   1.399       .  A
C1908      O1913   1.372       .  S
C1909      C1910   1.407       .  A
C1909      H1914   1.083       .  S
C1910      C1911   1.415       .  A
C1911      C1912   1.401       .  A
C1911      O1915   1.371       .  S
C1912      H1916   1.084       .  S
O1913      H1918   0.992       .  S
O1915      H1919   0.992   1_565  S
C1921      C1922   1.397       .  A
C1921      C1926   1.392       .  A
C1921      H1931   1.084       .  S
C1922      C1927   1.474       .  S
C1922      C1923   1.409       .  A
C1923      C1924   1.403       .  A
C1923      O1928   1.372       .  S
C1924      C1925   1.405       .  A
C1924      H1929   1.084       .  S
C1925      C1926   1.415       .  A
C1926      O1930   1.372       .  S
C1927      C1932   1.404       .  A
C1927      C1936   1.405       .  A
O1928      H1944   0.992       .  S
O1930      H1941   0.992       .  S
C1932      C1933   1.396       .  A
C1932      O1937   1.372       .  S
C1933      C1934   1.405       .  A
C1933      H1938   1.084       .  S
C1934      C1935   1.406       .  A
C1935      C1936   1.399       .  A
C1935      O1939   1.372       .  S
C1936      H1940   1.084       .  S
O1937      H1942   0.992       .  S
O1939      H1943   0.992       .  S
C1945      C1946   1.405       .  A
C1945      C1950   1.399       .  A
C1945      H1955   1.084       .  S
C1946      C1951   1.475       .  S
C1946      C1947   1.408       .  A
C1947      C1948   1.397       .  A
C1947      O1952   1.372       .  S
C1948      C1949   1.400       .  A
C1948      H1953   1.084       .  S
C1949      C1950   1.404       .  A
C1950      O1954   1.372       .  S
C1951      C1956   1.408       .  A
C1951      C1960   1.401       .  A
O1952      H1968   0.992       .  S
O1954      H1965   0.992       .  S
C1956      C1957   1.402       .  A
C1956      O1961   1.371       .  S
C1957      C1958   1.404       .  A
C1957      H1962   1.084       .  S
C1958      C1959   1.407       .  A
C1959      C1960   1.393       .  A
C1959      O1963   1.371       .  S
C1960      H1964   1.084       .  S
O1961      H1966   0.991       .  S
O1963      H1967   0.991       .  S
C1969      C1970   1.403       .  A
C1969      C1974   1.399       .  A
C1969      H1979   1.083       .  S
C1970      C1975   1.488       .  S
C1970      C1971   1.411       .  A
C1971      C1972   1.401       .  A
C1971      O1976   1.372       .  S
C1972      C1973   1.405       .  A
C1972      H1977   1.084       .  S
C1973      C1974   1.413       .  A
C1974      O1978   1.372       .  S
C1975      C1980   1.412       .  A
C1975      C1984   1.402       .  A
O1976      H1992   0.991       .  S
O1978      H1989   0.992       .  S
C1980      C1981   1.402       .  A
C1980      O1985   1.372       .  S
C1981      C1982   1.404       .  A
C1981      H1986   1.083       .  S
C1982      C1983   1.413       .  A
C1983      C1984   1.399       .  A
C1983      O1987   1.371       .  S
C1984      H1988   1.083       .  S
O1985      H1990   0.991       .  S
O1987      H1991   0.991       .  S
C1993      C1994   1.400       .  A
C1993      C1998   1.394       .  A
C1993      H2003   1.084       .  S
C1994      C1999   1.479       .  S
C1994      C1995   1.409       .  A
C1995      C1996   1.408       .  A
C1995      O2000   1.372       .  S
C1996      C1997   1.406       .  A
C1996      H2001   1.084       .  S
C1997      C1998   1.406       .  A
C1998      O2002   1.372       .  S
C1999      C2004   1.407       .  A
C1999      C2008   1.402       .  A
O2000      H2016   0.992       .  S
O2002      H2013   0.992       .  S
C2004      C2005   1.403       .  A
C2004      O2009   1.372       .  S
C2005      C2006   1.406       .  A
C2005      H2010   1.084       .  S
C2006      C2007   1.410       .  A
C2007      C2008   1.399       .  A
C2007      O2011   1.372       .  S
C2008      H2012   1.084       .  S
O2009      H2014   0.992       .  S
O2011      H2015   0.992       .  S
C2017      C2018   1.404       .  A
C2017      C2022   1.400       .  A
C2017      H2027   1.084       .  S
C2018      C2023   1.484       .  S
C2018      C2019   1.410       .  A
C2019      C2020   1.402       .  A
C2019      O2024   1.373       .  S
C2020      C2021   1.403       .  A
C2020      H2025   1.084       .  S
C2021      C2022   1.409       .  A
C2022      O2026   1.372       .  S
C2023      C2028   1.407       .  A
C2023      C2032   1.405       .  A
O2024      H2040   0.992       .  S
O2026      H2037   0.992       .  S
C2028      C2029   1.395       .  A
C2028      O2033   1.372       .  S
C2029      C2030   1.406       .  A
C2029      H2034   1.083       .  S
C2030      C2031   1.414       .  A
C2031      C2032   1.405       .  A
C2031      O2035   1.371   1_455  S
C2032      H2036   1.084       .  S
O2033      H2038   0.992       .  S
O2035      H2039   0.992       .  S
C2041      C2042   1.398       .  A
C2041      C2046   1.395       .  A
C2041      H2051   1.084       .  S
C2042      C2047   1.483       .  S
C2042      C2043   1.410       .  A
C2043      C2044   1.408       .  A
C2043      O2048   1.371       .  S
C2044      C2045   1.407       .  A
C2044      H2049   1.083       .  S
C2045      C2046   1.415       .  A
C2046      O2050   1.372       .  S
C2047      C2052   1.410       .  A
C2047      C2056   1.401       .  A
O2048      H2064   0.992       .  S
O2050      H2061   0.991       .  S
C2052      C2053   1.404       .  A
C2052      O2057   1.372       .  S
C2053      C2054   1.404       .  A
C2053      H2058   1.084       .  S
C2054      C2055   1.412       .  A
C2055      C2056   1.399       .  A
C2055      O2059   1.372       .  S
C2056      H2060   1.084       .  S
O2057      H2062   0.991       .  S
O2059      H2063   0.992       .  S
C2065      C2066   1.400       .  A
C2065      C2070   1.397       .  A
C2065      H2075   1.084       .  S
C2066      C2071   1.474       .  S
C2066      C2067   1.404       .  A
C2067      C2068   1.402       .  A
C2067      O2072   1.372       .  S
C2068      C2069   1.409       .  A
C2068      H2073   1.083       .  S
C2069      C2070   1.414       .  A
C2070      O2074   1.371       .  S
C2071      C2076   1.404       .  A
C2071      C2080   1.403       .  A
O2072      H2088   0.991       .  S
O2074      H2085   0.992       .  S
C2076      C2077   1.393       .  A
C2076      O2081   1.373       .  S
C2077      C2078   1.405       .  A
C2077      H2082   1.082       .  S
C2078      C2079   1.412       .  A
C2079      C2080   1.404       .  A
C2079      O2083   1.371       .  S
C2080      H2084   1.083       .  S
O2081      H2086   0.991       .  S
O2083      H2087   0.992       .  S
C2089      C2090   1.407       .  A
C2089      C2094   1.407       .  A
C2089      H2099   1.083       .  S
C2090      C2095   1.492       .  S
C2090      C2091   1.410       .  A
C2091      C2092   1.400       .  A
C2091      O2096   1.372       .  S
C2092      C2093   1.406       .  A
C2092      H2097   1.084       .  S
C2093      C2094   1.406       .  A
C2094      O2098   1.372       .  S
C2095      C2100   1.411       .  A
C2095      C2104   1.405       .  A
O2096      H2112   0.992       .  S
O2098      H2109   0.992       .  S
C2100      C2101   1.408       .  A
C2100      O2105   1.372       .  S
C2101      C2102   1.404       .  A
C2101      H2106   1.083       .  S
C2102      C2103   1.409       .  A
C2103      C2104   1.398       .  A
C2103      O2107   1.372       .  S
C2104      H2108   1.084       .  S
O2105      H2110   0.992       .  S
O2107      H2111   0.991       .  S
C2113      C2114   1.403       .  A
C2113      C2118   1.396       .  A
C2113      H2123   1.083       .  S
C2114      C2119   1.479       .  S
C2114      C2115   1.410       .  A
C2115      C2116   1.401       .  A
C2115      O2120   1.371       .  S
C2116      C2117   1.401       .  A
C2116      H2121   1.083       .  S
C2117      C2118   1.405       .  A
C2118      O2122   1.372       .  S
C2119      C2124   1.407       .  A
C2119      C2128   1.403       .  A
O2120      H2136   0.991       .  S
O2122      H2133   0.992       .  S
C2124      C2125   1.403       .  A
C2124      O2129   1.372       .  S
C2125      C2126   1.405       .  A
C2125      H2130   1.084       .  S
C2126      C2127   1.407       .  A
C2127      C2128   1.396       .  A
C2127      O2131   1.371       .  S
C2128      H2132   1.084       .  S
O2129      H2134   0.992       .  S
O2131      H2135   0.991       .  S
C2137      C2138   1.403       .  A
C2137      C2142   1.402       .  A
C2137      H2147   1.084       .  S
C2138      C2143   1.490       .  S
C2138      C2139   1.410       .  A
C2139      C2140   1.404       .  A
C2139      O2144   1.373       .  S
C2140      C2141   1.405       .  A
C2140      H2145   1.083       .  S
C2141      C2142   1.415       .  A
C2142      O2146   1.372       .  S
C2143      C2148   1.409       .  A
C2143      C2152   1.405       .  A
O2144      H2160   0.992       .  S
O2146      H2157   0.992       .  S
C2148      C2149   1.400       .  A
C2148      O2153   1.371       .  S
C2149      C2150   1.408       .  A
C2149      H2154   1.083       .  S
C2150      C2151   1.415       .  A
C2151      C2152   1.404       .  A
C2151      O2155   1.372       .  S
C2152      H2156   1.084       .  S
O2153      H2158   0.992       .  S
O2155      H2159   0.992       .  S
C2161      C2162   1.406       .  A
C2161      C2166   1.401       .  A
C2161      H2171   1.084       .  S
C2162      C2167   1.485       .  S
C2162      C2163   1.411       .  A
C2163      C2164   1.399       .  A
C2163      O2168   1.372       .  S
C2164      C2165   1.401       .  A
C2164      H2169   1.084       .  S
C2165      C2166   1.406       .  A
C2166      O2170   1.371       .  S
C2167      C2172   1.408       .  A
C2167      C2176   1.404       .  A
O2168      H2184   0.992       .  S
O2170      H2181   0.991       .  S
C2172      C2173   1.401       .  A
C2172      O2177   1.372       .  S
C2173      C2174   1.410       .  A
C2173      H2178   1.083       .  S
C2174      C2175   1.412       .  A
C2175      C2176   1.399       .  A
C2175      O2179   1.371       .  S
C2176      H2180   1.084       .  S
O2177      H2182   0.992       .  S
O2179      H2183   0.992       .  S
C2185      C2186   1.406       .  A
C2185      C2190   1.403       .  A
C2185      H2195   1.083       .  S
C2186      C2191   1.492       .  S
C2186      C2187   1.408       .  A
C2187      C2188   1.404       .  A
C2187      O2192   1.371       .  S
C2188      C2189   1.409       .  A
C2188      H2193   1.083       .  S
C2189      C2190   1.414       .  A
C2190      O2194   1.372       .  S
C2191      C2196   1.409       .  A
C2191      C2200   1.409       .  A
O2192      H2208   0.992       .  S
O2194      H2205   0.992       .  S
C2196      C2197   1.402       .  A
C2196      O2201   1.373       .  S
C2197      C2198   1.403       .  A
C2197      H2202   1.084       .  S
C2198      C2199   1.407       .  A
C2199      C2200   1.406       .  A
C2199      O2203   1.372       .  S
C2200      H2204   1.083       .  S
O2201      H2206   0.992       .  S
O2203      H2207   0.992       .  S
C2209      C2210   1.404       .  A
C2209      C2214   1.404       .  A
C2209      H2219   1.083       .  S
C2210      C2215   1.480       .  S
C2210      C2211   1.407       .  A
C2211      C2212   1.399       .  A
C2211      O2216   1.372       .  S
C2212      C2213   1.403       .  A
C2212      H2217   1.084       .  S
C2213      C2214   1.409       .  A
C2214      O2218   1.372       .  S
C2215      C2220   1.408       .  A
C2215      C2224   1.405       .  A
O2216      H2232   0.992       .  S
O2218      H2229   0.992       .  S
C2220      C2221   1.398       .  A
C2220      O2225   1.372       .  S
C2221      C2222   1.401       .  A
C2221      H2226   1.084       .  S
C2222      C2223   1.407       .  A
C2223      C2224   1.403       .  A
C2223      O2227   1.372       .  S
C2224      H2228   1.083       .  S
O2225      H2230   0.992       .  S
O2227      H2231   0.992       .  S
C2233      C2234   1.399       .  A
C2233      C2238   1.399       .  A
C2233      H2243   1.084       .  S
C2234      C2239   1.472       .  S
C2234      C2235   1.405       .  A
C2235      C2236   1.400       .  A
C2235      O2240   1.372       .  S
C2236      C2237   1.407       .  A
C2236      H2241   1.083       .  S
C2237      C2238   1.414       .  A
C2238      O2242   1.372       .  S
C2239      C2244   1.405       .  A
C2239      C2248   1.396       .  A
O2240      H2256   0.992       .  S
O2242      H2253   0.992       .  S
C2244      C2245   1.402       .  A
C2244      O2249   1.371       .  S
C2245      C2246   1.407       .  A
C2245      H2250   1.083       .  S
C2246      C2247   1.418       .  A
C2247      C2248   1.396       .  A
C2247      O2251   1.372       .  S
C2248      H2252   1.084       .  S
O2249      H2254   0.992       .  S
O2251      H2255   0.992       .  S
C2257      C2258   1.403       .  A
C2257      C2262   1.402       .  A
C2257      H2267   1.083       .  S
C2258      C2263   1.482       .  S
C2258      C2259   1.410       .  A
C2259      C2260   1.396       .  A
C2259      O2264   1.372       .  S
C2260      C2261   1.403       .  A
C2260      H2265   1.084       .  S
C2261      C2262   1.412       .  A
C2262      O2266   1.372       .  S
C2263      C2268   1.408       .  A
C2263      C2272   1.399       .  A
O2264      H2280   0.991       .  S
O2266      H2277   0.992       .  S
C2268      C2269   1.407       .  A
C2268      O2273   1.371       .  S
C2269      C2270   1.407       .  A
C2269      H2274   1.083       .  S
C2270      C2271   1.415       .  A
C2271      C2272   1.390       .  A
C2271      O2275   1.372       .  S
C2272      H2276   1.084       .  S
O2273      H2278   0.992       .  S
O2275      H2279   0.992       .  S
C2281      C2282   1.403       .  A
C2281      C2286   1.397       .  A
C2281      H2291   1.084       .  S
C2282      C2287   1.475       .  S
C2282      C2283   1.407       .  A
C2283      C2284   1.399       .  A
C2283      O2288   1.373       .  S
C2284      C2285   1.403       .  A
C2284      H2289   1.084       .  S
C2285      C2286   1.408       .  A
C2286      O2290   1.373       .  S
C2287      C2292   1.406       .  A
C2287      C2296   1.403       .  A
O2288      H2304   0.993       .  S
O2290      H2301   0.992       .  S
C2292      C2293   1.392       .  A
C2292      O2297   1.372       .  S
C2293      C2294   1.406       .  A
C2293      H2298   1.083       .  S
C2294      C2295   1.413       .  A
C2295      C2296   1.401       .  A
C2295      O2299   1.372       .  S
C2296      H2300   1.084       .  S
O2297      H2302   0.992       .  S
O2299      H2303   0.992       .  S
C2305      C2306   1.404       .  A
C2305      C2310   1.401       .  A
C2305      H2315   1.084       .  S
C2306      C2311   1.481       .  S
C2306      C2307   1.408       .  A
C2307      C2308   1.398       .  A
C2307      O2312   1.372       .  S
C2308      C2309   1.404       .  A
C2308      H2313   1.084       .  S
C2309      C2310   1.412       .  A
C2310      O2314   1.371       .  S
C2311      C2316   1.408       .  A
C2311      C2320   1.407       .  A
O2312      H2328   0.992       .  S
O2314      H2325   0.992       .  S
C2316      C2317   1.394       .  A
C2316      O2321   1.372       .  S
C2317      C2318   1.402       .  A
C2317      H2322   1.084       .  S
C2318      C2319   1.407       .  A
C2319      C2320   1.405       .  A
C2319      O2323   1.371       .  S
C2320      H2324   1.083       .  S
O2321      H2326   0.992       .  S
O2323      H2327   0.992       .  S
C2329      C2330   1.400       .  A
C2329      C2334   1.398       .  A
C2329      H2339   1.084       .  S
C2330      C2335   1.478       .  S
C2330      C2331   1.405       .  A
C2331      C2332   1.405       .  A
C2331      O2336   1.371       .  S
C2332      C2333   1.410       .  A
C2332      H2337   1.083       .  S
C2333      C2334   1.415       .  A
C2334      O2338   1.372       .  S
C2335      C2340   1.406       .  A
C2335      C2344   1.405       .  A
O2336      H2352   0.991       .  S
O2338      H2349   0.991       .  S
C2340      C2341   1.396       .  A
C2340      O2345   1.372       .  S
C2341      C2342   1.402       .  A
C2341      H2346   1.084       .  S
C2342      C2343   1.408       .  A
C2343      C2344   1.406       .  A
C2343      O2347   1.371       .  S
C2344      H2348   1.083       .  S
O2345      H2350   0.992       .  S
O2347      H2351   0.992       .  S
C2353      C2354   1.399       .  A
C2353      C2358   1.394       .  A
C2353      H2363   1.084       .  S
C2354      C2359   1.474       .  S
C2354      C2355   1.406       .  A
C2355      C2356   1.403       .  A
C2355      O2360   1.372       .  S
C2356      C2357   1.407       .  A
C2356      H2361   1.084       .  S
C2357      C2358   1.412       .  A
C2358      O2362   1.372       .  S
C2359      C2364   1.405       .  A
C2359      C2368   1.401       .  A
O2360      H2376   0.992       .  S
O2362      H2373   0.991       .  S
C2364      C2365   1.398       .  A
C2364      O2369   1.372       .  S
C2365      C2366   1.408       .  A
C2365      H2370   1.083       .  S
C2366      C2367   1.412       .  A
C2367      C2368   1.399       .  A
C2367      O2371   1.371       .  S
C2368      H2372   1.084       .  S
O2369      H2374   0.992       .  S
O2371      H2375   0.992       .  S
C2377      C2378   1.402       .  A
C2377      C2382   1.396       .  A
C2377      H2387   1.084       .  S
C2378      C2383   1.482       .  S
C2378      C2379   1.409       .  A
C2379      C2380   1.404       .  A
C2379      O2384   1.373       .  S
C2380      C2381   1.405       .  A
C2380      H2385   1.084       .  S
C2381      C2382   1.410       .  A
C2382      O2386   1.372       .  S
C2383      C2388   1.409       .  A
C2383      C2392   1.402       .  A
O2384      H2400   0.992       .  S
O2386      H2397   0.992       .  S
C2388      C2389   1.400       .  A
C2388      O2393   1.372       .  S
C2389      C2390   1.405       .  A
C2389      H2394   1.083       .  S
C2390      C2391   1.413       .  A
C2391      C2392   1.399       .  A
C2391      O2395   1.372       .  S
C2392      H2396   1.084       .  S
O2393      H2398   0.991       .  S
O2395      H2399   0.992       .  S
C2401      C2402   1.404       .  A
C2401      C2406   1.398       .  A
C2401      H2411   1.084       .  S
C2402      C2407   1.480       .  S
C2402      C2403   1.410       .  A
C2403      C2404   1.399       .  A
C2403      O2408   1.372       .  S
C2404      C2405   1.402       .  A
C2404      H2409   1.084       .  S
C2405      C2406   1.408       .  A
C2406      O2410   1.372       .  S
C2407      C2412   1.407       .  A
C2407      C2416   1.402       .  A
O2408      H2424   0.992       .  S
O2410      H2421   0.991       .  S
C2412      C2413   1.400       .  A
C2412      O2417   1.371       .  S
C2413      C2414   1.409       .  A
C2413      H2418   1.083       .  S
C2414      C2415   1.412       .  A
C2415      C2416   1.395       .  A
C2415      O2419   1.372       .  S
C2416      H2420   1.084       .  S
O2417      H2422   0.991       .  S
O2419      H2423   0.992       .  S
C2425      C2426   1.403   1_455  A
C2425      C2430   1.405       .  A
C2425      H2435   1.084       .  S
C2426      C2431   1.478       .  S
C2426      C2427   1.406       .  A
C2427      C2428   1.397   1_655  A
C2427      O2432   1.372       .  S
C2428      C2429   1.404       .  A
C2428      H2433   1.083       .  S
C2429      C2430   1.415       .  A
C2430      O2434   1.372       .  S
C2431      C2436   1.407       .  A
C2431      C2440   1.403       .  A
O2432      H2448   0.992       .  S
O2434      H2445   0.992       .  S
C2436      C2437   1.399       .  A
C2436      O2441   1.371       .  S
C2437      C2438   1.402       .  A
C2437      H2442   1.084       .  S
C2438      C2439   1.409       .  A
C2439      C2440   1.402       .  A
C2439      O2443   1.371       .  S
C2440      H2444   1.084       .  S
O2441      H2446   0.992       .  S
O2443      H2447   0.992       .  S
C2449      C2450   1.404       .  A
C2449      C2454   1.405       .  A
C2449      H2459   1.084       .  S
C2450      C2455   1.482       .  S
C2450      C2451   1.406       .  A
C2451      C2452   1.398       .  A
C2451      O2456   1.372       .  S
C2452      C2453   1.406       .  A
C2452      H2457   1.084       .  S
C2453      C2454   1.414       .  A
C2454      O2458   1.371       .  S
C2455      C2460   1.410       .  A
C2455      C2464   1.403       .  A
O2456      H2472   0.991       .  S
O2458      H2469   0.992       .  S
C2460      C2461   1.403       .  A
C2460      O2465   1.371       .  S
C2461      C2462   1.402       .  A
C2461      H2466   1.084       .  S
C2462      C2463   1.407       .  A
C2463      C2464   1.400       .  A
C2463      O2467   1.373       .  S
C2464      H2468   1.084       .  S
O2465      H2470   0.991   1_556  S
O2467      H2471   0.992       .  S
C2473      C2474   1.401       .  A
C2473      C2478   1.398       .  A
C2473      H2483   1.084       .  S
C2474      C2479   1.481       .  S
C2474      C2475   1.409       .  A
C2475      C2476   1.406       .  A
C2475      O2480   1.371       .  S
C2476      C2477   1.403       .  A
C2476      H2481   1.084       .  S
C2477      C2478   1.408       .  A
C2478      O2482   1.371       .  S
C2479      C2484   1.404       .  A
C2479      C2488   1.403       .  A
O2480      H2496   0.992       .  S
O2482      H2493   0.991       .  S
C2484      C2485   1.396       .  A
C2484      O2489   1.372       .  S
C2485      C2486   1.407       .  A
C2485      H2490   1.083       .  S
C2486      C2487   1.415       .  A
C2487      C2488   1.409       .  A
C2487      O2491   1.370       .  S
C2488      H2492   1.083       .  S
O2489      H2494   0.992       .  S
O2491      H2495   0.992       .  S
C2497      C2498   1.403       .  A
C2497      C2502   1.398       .  A
C2497      H2507   1.084       .  S
C2498      C2503   1.485       .  S
C2498      C2499   1.410       .  A
C2499      C2500   1.407       .  A
C2499      O2504   1.372       .  S
C2500      C2501   1.406       .  A
C2500      H2505   1.084       .  S
C2501      C2502   1.407       .  A
C2502      O2506   1.372       .  S
C2503      C2508   1.408       .  A
C2503      C2512   1.406       .  A
O2504      H2520   0.992       .  S
O2506      H2517   0.992       .  S
C2508      C2509   1.400       .  A
C2508      O2513   1.372       .  S
C2509      C2510   1.405       .  A
C2509      H2514   1.084       .  S
C2510      C2511   1.410       .  A
C2511      C2512   1.404       .  A
C2511      O2515   1.371       .  S
C2512      H2516   1.084       .  S
O2513      H2518   0.991       .  S
O2515      H2519   0.992       .  S
C2521      C2522   1.406       .  A
C2521      C2526   1.408       .  A
C2521      H2531   1.083       .  S
C2522      C2527   1.482       .  S
C2522      C2523   1.409       .  A
C2523      C2524   1.389       .  A
C2523      O2528   1.373       .  S
C2524      C2525   1.402       .  A
C2524      H2529   1.084       .  S
C2525      C2526   1.412       .  A
C2526      O2530   1.371       .  S
C2527      C2532   1.409       .  A
C2527      C2536   1.403       .  A
O2528      H2544   0.992       .  S
O2530      H2541   0.991       .  S
C2532      C2533   1.403       .  A
C2532      O2537   1.371       .  S
C2533      C2534   1.404       .  A
C2533      H2538   1.084       .  S
C2534      C2535   1.409       .  A
C2535      C2536   1.395       .  A
C2535      O2539   1.372       .  S
C2536      H2540   1.084       .  S
O2537      H2542   0.992       .  S
O2539      H2543   0.991       .  S
C2545      C2546   1.402       .  A
C2545      C2550   1.396       .  A
C2545      H2555   1.084       .  S
C2546      C2551   1.480       .  S
C2546      C2547   1.406       .  A
C2547      C2548   1.403       .  A
C2547      O2552   1.373       .  S
C2548      C2549   1.407       .  A
C2548      H2553   1.083       .  S
C2549      C2550   1.412       .  A
C2550      O2554   1.372       .  S
C2551      C2556   1.407       .  A
C2551      C2560   1.402       .  A
O2552      H2568   0.992       .  S
O2554      H2565   0.992       .  S
C2556      C2557   1.399       .  A
C2556      O2561   1.372       .  S
C2557      C2558   1.405       .  A
C2557      H2562   1.084       .  S
C2558      C2559   1.414       .  A
C2559      C2560   1.401       .  A
C2559      O2563   1.372       .  S
C2560      H2564   1.084       .  S
O2561      H2566   0.992       .  S
O2563      H2567   0.992       .  S
C2569      C2570   1.406       .  A
C2569      C2574   1.409       .  A
C2569      H2579   1.083       .  S
C2570      C2575   1.491   1_565  S
C2570      C2571   1.408       .  A
C2571      C2572   1.398       .  A
C2571      O2576   1.372       .  S
C2572      C2573   1.409       .  A
C2572      H2577   1.083       .  S
C2573      C2574   1.414       .  A
C2574      O2578   1.371       .  S
C2575      C2580   1.412       .  A
C2575      C2584   1.404       .  A
O2576      H2592   0.992       .  S
O2578      H2589   0.992       .  S
C2580      C2581   1.408       .  A
C2580      O2585   1.371       .  S
C2581      C2582   1.402       .  A
C2581      H2586   1.083       .  S
C2582      C2583   1.408       .  A
C2583      C2584   1.399       .  A
C2583      O2587   1.372       .  S
C2584      H2588   1.084       .  S
O2585      H2590   0.991       .  S
O2587      H2591   0.991       .  S
C2593      C2594   1.403       .  A
C2593      C2598   1.396       .  A
C2593      H2603   1.083       .  S
C2594      C2599   1.489       .  S
C2594      C2595   1.412       .  A
C2595      C2596   1.406       .  A
C2595      O2600   1.371       .  S
C2596      C2597   1.404       .  A
C2596      H2601   1.083       .  S
C2597      C2598   1.410       .  A
C2598      O2602   1.373       .  S
C2599      C2604   1.409       .  A
C2599      C2608   1.406       .  A
O2600      H2616   0.992       .  S
O2602      H2613   0.992       .  S
C2604      C2605   1.402       .  A
C2604      O2609   1.373       .  S
C2605      C2606   1.404       .  A
C2605      H2610   1.084       .  S
C2606      C2607   1.405       .  A
C2607      C2608   1.404       .  A
C2607      O2611   1.370       .  S
C2608      H2612   1.083       .  S
O2609      H2614   0.992       .  S
O2611      H2615   0.992       .  S
C2617      C2618   1.401       .  A
C2617      C2622   1.398       .  A
C2617      H2627   1.084       .  S
C2618      C2623   1.474       .  S
C2618      C2619   1.408       .  A
C2619      C2620   1.402       .  A
C2619      O2624   1.372       .  S
C2620      C2621   1.401       .  A
C2620      H2625   1.084       .  S
C2621      C2622   1.407       .  A
C2622      O2626   1.373       .  S
C2623      C2628   1.405       .  A
C2623      C2632   1.404       .  A
O2624      H2640   0.992       .  S
O2626      H2637   0.992       .  S
C2628      C2629   1.393       .  A
C2628      O2633   1.373       .  S
C2629      C2630   1.404       .  A
C2629      H2634   1.084       .  S
C2630      C2631   1.410       .  A
C2631      C2632   1.406       .  A
C2631      O2635   1.371       .  S
C2632      H2636   1.083       .  S
O2633      H2638   0.991       .  S
O2635      H2639   0.992       .  S
C2641      C2642   1.404       .  A
C2641      C2646   1.400       .  A
C2641      H2651   1.084       .  S
C2642      C2647   1.490       .  S
C2642      C2643   1.412       .  A
C2643      C2644   1.406       .  A
C2643      O2648   1.372       .  S
C2644      C2645   1.403       .  A
C2644      H2649   1.084       .  S
C2645      C2646   1.410       .  A
C2646      O2650   1.372       .  S
C2647      C2652   1.409       .  A
C2647      C2656   1.407       .  A
O2648      H2664   0.992       .  S
O2650      H2661   0.992       .  S
C2652      C2653   1.397       .  A
C2652      O2657   1.372       .  S
C2653      C2654   1.404       .  A
C2653      H2658   1.084       .  S
C2654      C2655   1.410       .  A
C2655      C2656   1.409       .  A
C2655      O2659   1.371       .  S
C2656      H2660   1.083       .  S
O2657      H2662   0.992       .  S
O2659      H2663   0.992       .  S
C2665      C2666   1.403       .  A
C2665      C2670   1.398       .  A
C2665      H2675   1.084       .  S
C2666      C2671   1.500       .  S
C2666      C2667   1.413       .  A
C2667      C2668   1.415       .  A
C2667      O2672   1.371       .  S
C2668      C2669   1.409       .  A
C2668      H2673   1.083       .  S
C2669      C2670   1.414       .  A
C2670      O2674   1.372       .  S
C2671      C2676   1.410       .  A
C2671      C2680   1.409       .  A
O2672      H2688   0.991       .  S
O2674      H2685   0.992       .  S
C2676      C2677   1.401       .  A
C2676      O2681   1.373       .  S
C2677      C2678   1.407       .  A
C2677      H2682   1.084       .  S
C2678      C2679   1.415       .  A
C2679      C2680   1.414       .  A
C2679      O2683   1.371       .  S
C2680      H2684   1.083       .  S
O2681      H2686   0.992       .  S
O2683      H2687   0.992       .  S
C2689      C2690   1.405       .  A
C2689      C2694   1.404       .  A
C2689      H2699   1.083       .  S
C2690      C2695   1.473       .  S
C2690      C2691   1.405       .  A
C2691      C2692   1.390       .  A
C2691      O2696   1.373       .  S
C2692      C2693   1.403       .  A
C2692      H2697   1.084       .  S
C2693      C2694   1.407       .  A
C2694      O2698   1.372       .  S
C2695      C2700   1.408       .  A
C2695      C2704   1.402       .  A
O2696      H2712   0.991       .  S
O2698      H2709   0.992       .  S
C2700      C2701   1.398       .  A
C2700      O2705   1.371       .  S
C2701      C2702   1.400       .  A
C2701      H2706   1.083       .  S
C2702      C2703   1.404       .  A
C2703      C2704   1.396       .  A
C2703      O2707   1.369       .  S
C2704      H2708   1.084       .  S
O2705      H2710   0.991       .  S
O2707      H2711   0.992       .  S
C2713      C2714   1.400       .  A
C2713      C2718   1.399       .  A
C2713      H2723   1.084       .  S
C2714      C2719   1.473       .  S
C2714      C2715   1.403       .  A
C2715      C2716   1.399       .  A
C2715      O2720   1.372       .  S
C2716      C2717   1.408       .  A
C2716      H2721   1.083       .  S
C2717      C2718   1.415       .  A
C2718      O2722   1.372       .  S
C2719      C2724   1.405       .  A
C2719      C2728   1.400       .  A
O2720      H2736   0.992       .  S
O2722      H2733   0.992       .  S
C2724      C2725   1.394       .  A
C2724      O2729   1.372       .  S
C2725      C2726   1.406       .  A
C2725      H2730   1.083       .  S
C2726      C2727   1.416       .  A
C2727      C2728   1.403       .  A
C2727      O2731   1.371       .  S
C2728      H2732   1.083       .  S
O2729      H2734   0.992       .  S
O2731      H2735   0.992       .  S
C2737      C2738   1.409       .  A
C2737      C2742   1.410       .  A
C2737      H2747   1.083       .  S
C2738      C2743   1.488       .  S
C2738      C2739   1.407       .  A
C2739      C2740   1.391       .  A
C2739      O2744   1.372       .  S
C2740      C2741   1.406       .  A
C2740      H2745   1.084       .  S
C2741      C2742   1.411       .  A
C2742      O2746   1.371       .  S
C2743      C2748   1.408       .  A
C2743      C2752   1.408       .  A
O2744      H2760   0.992       .  S
O2746      H2757   0.992       .  S
C2748      C2749   1.401       .  A
C2748      O2753   1.371       .  S
C2749      C2750   1.405       .  A
C2749      H2754   1.084       .  S
C2750      C2751   1.407       .  A
C2751      C2752   1.401       .  A
C2751      O2755   1.372       .  S
C2752      H2756   1.084       .  S
O2753      H2758   0.992       .  S
O2755      H2759   0.992       .  S
C2761      C2762   1.401       .  A
C2761      C2766   1.402       .  A
C2761      H2771   1.083       .  S
C2762      C2767   1.465       .  S
C2762      C2763   1.404       .  A
C2763      C2764   1.390       .  A
C2763      O2768   1.373       .  S
C2764      C2765   1.401       .  A
C2764      H2769   1.084       .  S
C2765      C2766   1.409       .  A
C2766      O2770   1.371       .  S
C2767      C2772   1.402       .  A
C2767      C2776   1.401       .  A
O2768      H2784   0.991       .  S
O2770      H2781   0.992       .  S
C2772      C2773   1.396       .  A
C2772      O2777   1.372       .  S
C2773      C2774   1.407       .  A
C2773      H2778   1.083       .  S
C2774      C2775   1.411       .  A
C2775      C2776   1.396       .  A
C2775      O2779   1.372       .  S
C2776      H2780   1.084       .  S
O2777      H2782   0.992       .  S
O2779      H2783   0.992       .  S
C2785      C2786   1.402       .  A
C2785      C2790   1.399       .  A
C2785      H2795   1.084       .  S
C2786      C2791   1.476       .  S
C2786      C2787   1.406       .  A
C2787      C2788   1.397       .  A
C2787      O2792   1.372       .  S
C2788      C2789   1.406       .  A
C2788      H2793   1.083       .  S
C2789      C2790   1.413       .  A
C2790      O2794   1.372       .  S
C2791      C2796   1.408       .  A
C2791      C2800   1.402       .  A
O2792      H2808   0.992       .  S
O2794      H2805   0.992       .  S
C2796      C2797   1.402       .  A
C2796      O2801   1.373       .  S
C2797      C2798   1.404       .  A
C2797      H2802   1.084       .  S
C2798      C2799   1.407       .  A
C2799      C2800   1.394       .  A
C2799      O2803   1.372       .  S
C2800      H2804   1.084       .  S
O2801      H2806   0.992       .  S
O2803      H2807   0.992       .  S
C2809      C2810   1.401       .  A
C2809      C2814   1.398       .  A
C2809      H2819   1.084       .  S
C2810      C2815   1.475       .  S
C2810      C2811   1.405       .  A
C2811      C2812   1.397       .  A
C2811      O2816   1.372       .  S
C2812      C2813   1.408       .  A
C2812      H2817   1.083       .  S
C2813      C2814   1.413       .  A
C2814      O2818   1.371       .  S
C2815      C2820   1.405       .  A
C2815      C2824   1.400       .  A
O2816      H2832   0.992       .  S
O2818      H2829   0.992       .  S
C2820      C2821   1.399       .  A
C2820      O2825   1.372       .  S
C2821      C2822   1.407       .  A
C2821      H2826   1.083       .  S
C2822      C2823   1.415       .  A
C2823      C2824   1.397       .  A
C2823      O2827   1.372       .  S
C2824      H2828   1.084       .  S
O2825      H2830   0.991       .  S
O2827      H2831   0.992       .  S
C2833      C2834   1.401   1_455  A
C2833      C2838   1.398       .  A
C2833      H2843   1.084       .  S
C2834      C2839   1.475       .  S
C2834      C2835   1.407       .  A
C2835      C2836   1.397   1_655  A
C2835      O2840   1.372       .  S
C2836      C2837   1.403       .  A
C2836      H2841   1.084       .  S
C2837      C2838   1.413       .  A
C2838      O2842   1.372       .  S
C2839      C2844   1.406       .  A
C2839      C2848   1.401       .  A
O2840      H2856   0.992       .  S
O2842      H2853   0.992       .  S
C2844      C2845   1.399       .  A
C2844      O2849   1.371       .  S
C2845      C2846   1.406       .  A
C2845      H2850   1.084       .  S
C2846      C2847   1.412       .  A
C2847      C2848   1.395       .  A
C2847      O2851   1.372       .  S
C2848      H2852   1.084       .  S
O2849      H2854   0.992       .  S
O2851      H2855   0.992       .  S
C2857      C2858   1.406       .  A
C2857      C2862   1.400       .  A
C2857      H2867   1.083       .  S
C2858      C2863   1.484       .  S
C2858      C2859   1.408       .  A
C2859      C2860   1.397       .  A
C2859      O2864   1.372       .  S
C2860      C2861   1.405       .  A
C2860      H2865   1.084       .  S
C2861      C2862   1.410       .  A
C2862      O2866   1.372       .  S
C2863      C2868   1.408       .  A
C2863      C2872   1.406       .  A
O2864      H2880   0.992       .  S
O2866      H2877   0.992       .  S
C2868      C2869   1.397       .  A
C2868      O2873   1.373       .  S
C2869      C2870   1.406       .  A
C2869      H2874   1.084       .  S
C2870      C2871   1.409       .  A
C2871      C2872   1.401       .  A
C2871      O2875   1.371       .  S
C2872      H2876   1.083       .  S
O2873      H2878   0.992       .  S
O2875      H2879   0.992       .  S
C2881      C2882   1.400       .  A
C2881      C2886   1.397       .  A
C2881      H2891   1.084       .  S
C2882      C2887   1.480       .  S
C2882      C2883   1.406       .  A
C2883      C2884   1.407       .  A
C2883      O2888   1.371       .  S
C2884      C2885   1.408       .  A
C2884      H2889   1.083       .  S
C2885      C2886   1.412       .  A
C2886      O2890   1.372       .  S
C2887      C2892   1.409       .  A
C2887      C2896   1.401       .  A
O2888      H2904   0.991       .  S
O2890      H2901   0.992       .  S
C2892      C2893   1.406       .  A
C2892      O2897   1.371       .  S
C2893      C2894   1.404       .  A
C2893      H2898   1.084       .  S
C2894      C2895   1.410       .  A
C2895      C2896   1.396       .  A
C2895      O2899   1.372       .  S
C2896      H2900   1.084       .  S
O2897      H2902   0.992       .  S
O2899      H2903   0.992       .  S
C2905      C2906   1.403       .  A
C2905      C2910   1.400       .  A
C2905      H2915   1.084       .  S
C2906      C2911   1.478       .  S
C2906      C2907   1.406       .  A
C2907      C2908   1.397       .  A
C2907      O2912   1.372       .  S
C2908      C2909   1.406       .  A
C2908      H2913   1.084       .  S
C2909      C2910   1.411       .  A
C2910      O2914   1.371       .  S
C2911      C2916   1.406       .  A
C2911      C2920   1.401       .  A
O2912      H2928   0.992       .  S
O2914      H2925   0.991       .  S
C2916      C2917   1.400       .  A
C2916      O2921   1.372       .  S
C2917      C2918   1.406       .  A
C2917      H2922   1.084       .  S
C2918      C2919   1.412       .  A
C2919      C2920   1.398       .  A
C2919      O2923   1.372       .  S
C2920      H2924   1.084       .  S
O2921      H2926   0.991       .  S
O2923      H2927   0.992       .  S
C2929      C2930   1.400       .  A
C2929      C2934   1.402       .  A
C2929      H2939   1.084       .  S
C2930      C2935   1.477       .  S
C2930      C2931   1.407       .  A
C2931      C2932   1.397       .  A
C2931      O2936   1.372       .  S
C2932      C2933   1.406       .  A
C2932      H2937   1.084       .  S
C2933      C2934   1.414       .  A
C2934      O2938   1.372       .  S
C2935      C2940   1.406       .  A
C2935      C2944   1.398       .  A
O2936      H2952   0.992       .  S
O2938      H2949   0.992       .  S
C2940      C2941   1.407       .  A
C2940      O2945   1.371       .  S
C2941      C2942   1.409       .  A
C2941      H2946   1.083       .  S
C2942      C2943   1.414       .  A
C2943      C2944   1.392       .  A
C2943      O2947   1.372       .  S
C2944      H2948   1.084       .  S
O2945      H2950   0.992       .  S
O2947      H2951   0.992       .  S
C2953      C2954   1.401       .  A
C2953      C2958   1.403       .  A
C2953      H2963   1.083       .  S
C2954      C2959   1.471       .  S
C2954      C2955   1.404       .  A
C2955      C2956   1.393       .  A
C2955      O2960   1.373       .  S
C2956      C2957   1.406       .  A
C2956      H2961   1.083       .  S
C2957      C2958   1.414       .  A
C2958      O2962   1.371       .  S
C2959      C2964   1.405       .  A
C2959      C2968   1.401       .  A
O2960      H2976   0.991       .  S
O2962      H2973   0.992       .  S
C2964      C2965   1.400       .  A
C2964      O2969   1.372       .  S
C2965      C2966   1.405       .  A
C2965      H2970   1.084       .  S
C2966      C2967   1.410       .  A
C2967      C2968   1.397       .  A
C2967      O2971   1.372       .  S
C2968      H2972   1.084       .  S
O2969      H2974   0.991       .  S
O2971      H2975   0.992       .  S
C2977      C2978   1.403       .  A
C2977      C2982   1.404       .  A
C2977      H2987   1.084       .  S
C2978      C2983   1.478       .  S
C2978      C2979   1.404       .  A
C2979      C2980   1.397       .  A
C2979      O2984   1.372       .  S
C2980      C2981   1.407       .  A
C2980      H2985   1.083       .  S
C2981      C2982   1.414       .  A
C2982      O2986   1.372       .  S
C2983      C2988   1.407       .  A
C2983      C2992   1.402       .  A
O2984      H3000   0.991       .  S
O2986      H2997   0.992       .  S
C2988      C2989   1.401       .  A
C2988      O2993   1.372       .  S
C2989      C2990   1.404       .  A
C2989      H2994   1.084       .  S
C2990      C2991   1.411       .  A
C2991      C2992   1.400       .  A
C2991      O2995   1.372       .  S
C2992      H2996   1.084       .  S
O2993      H2998   0.992       .  S
O2995      H2999   0.992       .  S
C3001      C3002   1.403       .  A
C3001      C3006   1.406       .  A
C3001      H3011   1.083       .  S
C3002      C3007   1.479       .  S
C3002      C3003   1.405       .  A
C3003      C3004   1.395       .  A
C3003      O3008   1.373       .  S
C3004      C3005   1.406       .  A
C3004      H3009   1.083       .  S
C3005      C3006   1.415       .  A
C3006      O3010   1.371       .  S
C3007      C3012   1.407       .  A
C3007      C3016   1.405       .  A
O3008      H3024   0.992       .  S
O3010      H3021   0.992       .  S
C3012      C3013   1.393       .  A
C3012      O3017   1.372       .  S
C3013      C3014   1.402       .  A
C3013      H3018   1.084       .  S
C3014      C3015   1.408       .  A
C3015      C3016   1.406       .  A
C3015      O3019   1.371       .  S
C3016      H3020   1.083       .  S
O3017      H3022   0.991       .  S
O3019      H3023   0.991       .  S
C3025      C3026   1.405       .  A
C3025      C3030   1.402       .  A
C3025      H3035   1.084       .  S
C3026      C3031   1.486       .  S
C3026      C3027   1.407       .  A
C3027      C3028   1.401       .  A
C3027      O3032   1.373       .  S
C3028      C3029   1.406       .  A
C3028      H3033   1.084       .  S
C3029      C3030   1.412       .  A
C3030      O3034   1.372       .  S
C3031      C3036   1.411       .  A
C3031      C3040   1.402       .  A
O3032      H3048   0.992       .  S
O3034      H3045   0.992       .  S
C3036      C3037   1.402       .  A
C3036      O3041   1.371       .  S
C3037      C3038   1.405       .  A
C3037      H3042   1.084       .  S
C3038      C3039   1.413       .  A
C3039      C3040   1.400       .  A
C3039      O3043   1.372       .  S
C3040      H3044   1.084       .  S
O3041      H3046   0.992       .  S
O3043      H3047   0.992       .  S
C3049      C3050   1.400       .  A
C3049      C3054   1.397       .  A
C3049      H3059   1.084       .  S
C3050      C3055   1.474       .  S
C3050      C3051   1.406       .  A
C3051      C3052   1.401       .  A
C3051      O3056   1.372       .  S
C3052      C3053   1.406       .  A
C3052      H3057   1.084       .  S
C3053      C3054   1.411       .  A
C3054      O3058   1.373       .  S
C3055      C3060   1.405       .  A
C3055      C3064   1.402       .  A
O3056      H3072   0.992       .  S
O3058      H3069   0.992       .  S
C3060      C3061   1.393       .  A
C3060      O3065   1.372       .  S
C3061      C3062   1.406       .  A
C3061      H3066   1.083       .  S
C3062      C3063   1.413       .  A
C3063      C3064   1.402       .  A
C3063      O3067   1.371       .  S
C3064      H3068   1.084       .  S
O3065      H3070   0.992       .  S
O3067      H3071   0.992       .  S
C3073      C3074   1.404       .  A
C3073      C3078   1.401       .  A
C3073      H3083   1.084       .  S
C3074      C3079   1.476       .  S
C3074      C3075   1.407       .  A
C3075      C3076   1.399       .  A
C3075      O3080   1.371       .  S
C3076      C3077   1.403       .  A
C3076      H3081   1.084       .  S
C3077      C3078   1.405       .  A
C3078      O3082   1.372       .  S
C3079      C3084   1.407       .  A
C3079      C3088   1.398       .  A
O3080      H3096   0.991       .  S
O3082      H3093   0.992       .  S
C3084      C3085   1.408       .  A
C3084      O3089   1.371       .  S
C3085      C3086   1.408       .  A
C3085      H3090   1.083       .  S
C3086      C3087   1.413       .  A
C3087      C3088   1.392       .  A
C3087      O3091   1.372       .  S
C3088      H3092   1.084       .  S
O3089      H3094   0.992       .  S
O3091      H3095   0.991       .  S
C3097      C3098   1.405       .  A
C3097      C3102   1.406       .  A
C3097      H3107   1.083       .  S
C3098      C3103   1.481       .  S
C3098      C3099   1.406       .  A
C3099      C3100   1.394       .  A
C3099      O3104   1.373       .  S
C3100      C3101   1.405       .  A
C3100      H3105   1.084       .  S
C3101      C3102   1.410       .  A
C3102      O3106   1.371       .  S
C3103      C3108   1.410       .  A
C3103      C3112   1.402       .  A
O3104      H3120   0.992       .  S
O3106      H3117   0.992       .  S
C3108      C3109   1.403       .  A
C3108      O3113   1.371       .  S
C3109      C3110   1.402       .  A
C3109      H3114   1.084       .  S
C3110      C3111   1.408       .  A
C3111      C3112   1.398       .  A
C3111      O3115   1.372       .  S
C3112      H3116   1.084       .  S
O3113      H3118   0.991       .  S
O3115      H3119   0.992       .  S
C3121      C3122   1.401       .  A
C3121      C3126   1.394       .  A
C3121      H3131   1.084       .  S
C3122      C3127   1.478       .  S
C3122      C3123   1.409       .  A
C3123      C3124   1.402       .  A
C3123      O3128   1.372       .  S
C3124      C3125   1.404       .  A
C3124      H3129   1.084       .  S
C3125      C3126   1.409       .  A
C3126      O3130   1.372       .  S
C3127      C3132   1.405       .  A
C3127      C3136   1.404       .  A
O3128      H3144   0.992       .  S
O3130      H3141   0.992       .  S
C3132      C3133   1.397       .  A
C3132      O3137   1.372       .  S
C3133      C3134   1.408       .  A
C3133      H3138   1.084       .  S
C3134      C3135   1.409       .  A
C3135      C3136   1.398       .  A
C3135      O3139   1.372       .  S
C3136      H3140   1.084       .  S
O3137      H3142   0.992       .  S
O3139      H3143   0.992       .  S
C3145      C3146   1.402       .  A
C3145      C3150   1.398       .  A
C3145      H3155   1.084       .  S
C3146      C3151   1.478       .  S
C3146      C3147   1.409       .  A
C3147      C3148   1.401       .  A
C3147      O3152   1.371       .  S
C3148      C3149   1.401       .  A
C3148      H3153   1.084       .  S
C3149      C3150   1.406       .  A
C3150      O3154   1.373       .  S
C3151      C3156   1.407       .  A
C3151      C3160   1.403       .  A
O3152      H3168   0.991       .  S
O3154      H3165   0.991       .  S
C3156      C3157   1.403       .  A
C3156      O3161   1.372       .  S
C3157      C3158   1.405       .  A
C3157      H3162   1.084       .  S
C3158      C3159   1.408       .  A
C3159      C3160   1.397       .  A
C3159      O3163   1.372       .  S
C3160      H3164   1.084       .  S
O3161      H3166   0.992       .  S
O3163      H3167   0.992       .  S
C3169      C3170   1.406       .  A
C3169      C3174   1.412       .  A
C3169      H3179   1.083       .  S
C3170      C3175   1.487       .  S
C3170      C3171   1.406       .  A
C3171      C3172   1.395       .  A
C3171      O3176   1.372       .  S
C3172      C3173   1.405       .  A
C3172      H3177   1.084       .  S
C3173      C3174   1.414       .  A
C3174      O3178   1.371       .  S
C3175      C3180   1.411       .  A
C3175      C3184   1.402       .  A
O3176      H3192   0.992       .  S
O3178      H3189   0.991       .  S
C3180      C3181   1.408       .  A
C3180      O3185   1.371       .  S
C3181      C3182   1.405       .  A
C3181      H3186   1.084       .  S
C3182      C3183   1.410       .  A
C3183      C3184   1.398       .  A
C3183      O3187   1.372       .  S
C3184      H3188   1.084       .  S
O3185      H3190   0.992       .  S
O3187      H3191   0.992       .  S
C3193      C3194   1.407       .  A
C3193      C3198   1.405       .  A
C3193      H3203   1.083       .  S
C3194      C3199   1.488       .  S
C3194      C3195   1.410       .  A
C3195      C3196   1.400       .  A
C3195      O3200   1.371       .  S
C3196      C3197   1.402       .  A
C3196      H3201   1.084       .  S
C3197      C3198   1.407       .  A
C3198      O3202   1.372       .  S
C3199      C3204   1.411       .  A
C3199      C3208   1.403       .  A
O3200      H3216   0.992       .  S
O3202      H3213   0.992       .  S
C3204      C3205   1.408       .  A
C3204      O3209   1.371       .  S
C3205      C3206   1.405       .  A
C3205      H3210   1.084       .  S
C3206      C3207   1.408       .  A
C3207      C3208   1.397       .  A
C3207      O3211   1.373       .  S
C3208      H3212   1.084       .  S
O3209      H3214   0.992       .  S
O3211      H3215   0.992       .  S
C3217      C3218   1.403       .  A
C3217      C3222   1.399       .  A
C3217      H3227   1.084       .  S
C3218      C3223   1.488       .  S
C3218      C3219   1.409       .  A
C3219      C3220   1.410       .  A
C3219      O3224   1.371       .  S
C3220      C3221   1.408       .  A
C3220      H3225   1.083       .  S
C3221      C3222   1.411       .  A
C3222      O3226   1.372       .  S
C3223      C3228   1.411       .  A
C3223      C3232   1.400       .  A
O3224      H3240   0.991       .  S
O3226      H3237   0.992       .  S
C3228      C3229   1.412       .  A
C3228      O3233   1.371       .  S
C3229      C3230   1.408       .  A
C3229      H3234   1.083       .  S
C3230      C3231   1.415       .  A
C3231      C3232   1.396       .  A
C3231      O3235   1.372       .  S
C3232      H3236   1.084       .  S
O3233      H3238   0.992       .  S
O3235      H3239   0.992       .  S
C3241      C3242   1.403       .  A
C3241      C3246   1.402       .  A
C3241      H3251   1.083       .  S
C3242      C3247   1.483       .  S
C3242      C3243   1.406       .  A
C3243      C3244   1.399       .  A
C3243      O3248   1.372       .  S
C3244      C3245   1.409       .  A
C3244      H3249   1.083       .  S
C3245      C3246   1.413       .  A
C3246      O3250   1.371       .  S
C3247      C3252   1.405       .  A
C3247      C3256   1.404       .  A
O3248      H3264   0.992       .  S
O3250      H3261   0.992       .  S
C3252      C3253   1.399       .  A
C3252      O3257   1.372       .  S
C3253      C3254   1.409       .  A
C3253      H3258   1.083       .  S
C3254      C3255   1.413       .  A
C3255      C3256   1.402       .  A
C3255      O3259   1.371       .  S
C3256      H3260   1.084       .  S
O3257      H3262   0.992       .  S
O3259      H3263   0.992       .  S
C3265      C3266   1.403       .  A
C3265      C3270   1.406       .  A
C3265      H3275   1.083       .  S
C3266      C3271   1.473       .  S
C3266      C3267   1.403       .  A
C3267      C3268   1.392       .  A
C3267      O3272   1.372       .  S
C3268      C3269   1.405       .  A
C3268      H3273   1.084       .  S
C3269      C3270   1.412       .  A
C3270      O3274   1.371       .  S
C3271      C3276   1.405       .  A
C3271      C3280   1.401       .  A
O3272      H3288   0.991       .  S
O3274      H3285   0.992       .  S
C3276      C3277   1.401       .  A
C3276      O3281   1.372       .  S
C3277      C3278   1.405       .  A
C3277      H3282   1.084       .  S
C3278      C3279   1.410       .  A
C3279      C3280   1.398       .  A
C3279      O3283   1.372       .  S
C3280      H3284   1.084       .  S
O3281      H3286   0.992       .  S
O3283      H3287   0.992       .  S
C3289      C3290   1.404       .  A
C3289      C3294   1.399       .  A
C3289      H3299   1.084       .  S
C3290      C3295   1.482       .  S
C3290      C3291   1.406       .  A
C3291      C3292   1.401       .  A
C3291      O3296   1.373       .  S
C3292      C3293   1.408       .  A
C3292      H3297   1.083       .  S
C3293      C3294   1.412       .  A
C3294      O3298   1.371       .  S
C3295      C3300   1.410       .  A
C3295      C3304   1.404       .  A
O3296      H3312   0.992       .  S
O3298      H3309   0.992       .  S
C3300      C3301   1.396       .  A
C3300      O3305   1.372       .  S
C3301      C3302   1.402       .  A
C3301      H3306   1.084       .  S
C3302      C3303   1.409       .  A
C3303      C3304   1.400       .  A
C3303      O3307   1.372       .  S
C3304      H3308   1.084       .  S
O3305      H3310   0.992       .  S
O3307      H3311   0.991       .  S
C3313      C3314   1.404       .  A
C3313      C3318   1.399       .  A
C3313      H3323   1.083       .  S
C3314      C3319   1.479       .  S
C3314      C3315   1.410       .  A
C3315      C3316   1.399       .  A
C3315      O3320   1.372       .  S
C3316      C3317   1.401       .  A
C3316      H3321   1.084       .  S
C3317      C3318   1.405       .  A
C3318      O3322   1.372       .  S
C3319      C3324   1.408       .  A
C3319      C3328   1.401       .  A
O3320      H3336   0.992       .  S
O3322      H3333   0.991       .  S
C3324      C3325   1.405       .  A
C3324      O3329   1.371       .  S
C3325      C3326   1.405       .  A
C3325      H3330   1.083       .  S
C3326      C3327   1.411       .  A
C3327      C3328   1.394       .  A
C3327      O3331   1.373       .  S
C3328      H3332   1.084       .  S
O3329      H3334   0.992       .  S
O3331      H3335   0.992       .  S
C3337      C3338   1.403       .  A
C3337      C3342   1.406       .  A
C3337      H3347   1.083       .  S
C3338      C3343   1.475       .  S
C3338      C3339   1.405       .  A
C3339      C3340   1.389       .  A
C3339      O3344   1.373       .  S
C3340      C3341   1.404       .  A
C3340      H3345   1.084       .  S
C3341      C3342   1.413       .  A
C3342      O3346   1.371       .  S
C3343      C3348   1.406       .  A
C3343      C3352   1.400       .  A
O3344      H3360   0.992       .  S
O3346      H3357   0.992       .  S
C3348      C3349   1.404       .  A
C3348      O3353   1.371       .  S
C3349      C3350   1.407       .  A
C3349      H3354   1.083       .  S
C3350      C3351   1.411       .  A
C3351      C3352   1.393       .  A
C3351      O3355   1.372       .  S
C3352      H3356   1.084       .  S
O3353      H3358   0.992       .  S
O3355      H3359   0.991       .  S
C3361      C3362   1.400       .  A
C3361      C3366   1.398       .  A
C3361      H3371   1.084       .  S
C3362      C3367   1.474   1_545  S
C3362      C3363   1.407       .  A
C3363      C3364   1.398       .  A
C3363      O3368   1.372   1_545  S
C3364      C3365   1.405       .  A
C3364      H3369   1.084       .  S
C3365      C3366   1.413       .  A
C3366      O3370   1.372       .  S
C3367      C3372   1.406       .  A
C3367      C3376   1.402       .  A
O3368      H3384   0.992       .  S
O3370      H3381   0.992       .  S
C3372      C3373   1.398       .  A
C3372      O3377   1.371       .  S
C3373      C3374   1.405       .  A
C3373      H3378   1.084       .  S
C3374      C3375   1.409       .  A
C3375      C3376   1.396       .  A
C3375      O3379   1.372       .  S
C3376      H3380   1.084       .  S
O3377      H3382   0.991       .  S
O3379      H3383   0.992       .  S
