geometry optimzed in LAMMPS
_audit_creation_date              2020-12-01 
_audit_creation_method            'lammps2cif' 
_symmetry_space_group_name_H-M    'P1' 
_symmetry_Int_Tables_number       1 
_symmetry_cell_setting            triclinic 
loop_ 
_symmetry_equiv_pos_as_xyz 
  x,y,z 
_cell_length_a                    51.52324836 
_cell_length_b                    51.40655084057924 
_cell_length_c                    27.291930496530657 
_cell_angle_alpha                 90.00666343942933 
_cell_angle_beta                  90.06354804246213 
_cell_angle_gamma                 90.24464150394482 
loop_ 
_atom_site_label 
_atom_site_type_symbol 
_atom_site_fract_x 
_atom_site_fract_y 
_atom_site_fract_z 
_atom_site_charge 
O1          O  0.48658282  0.93336504  0.24720939    -0.85700
O2          O  0.45730758  0.95075091  0.17230291    -0.82700
C3          C  0.43870713  0.95759070  0.14581721     0.97800
O4          O  0.41589686  0.95848243  0.16297921    -0.82800
O5          O  0.40634949  0.90725159  0.18375168    -0.85400
C6          C  0.40765540  0.88511662  0.20325283     1.02300
O7          O  0.41497340  0.88312723  0.24768859    -0.78200
O8          O  0.46595359  0.89635179  0.24496792    -0.78300
C9          C  0.48580117  0.90958712  0.23509682     1.02300
O10         O  0.45829529  0.96741457  0.31192051    -0.85700
O11         O  0.43218371  0.98892795  0.23357498    -0.82700
C12         C  0.40852012  0.99176013  0.24557555     0.97800
O13         O  0.39521501  0.97205674  0.25716850    -0.82800
O14         O  0.38097700  0.92047120  0.27402580    -0.85400
C15         C  0.38648726  0.91547773  0.31837646     1.02300
O16         O  0.40962799  0.91680155  0.33271148    -0.78200
O17         O  0.46176037  0.92668219  0.33567244    -0.78300
C18         C  0.46438914  0.95095056  0.34397247     1.02200
Cr19       Cr  0.45677440  0.95853740  0.24221569     1.93700
Cr20       Cr  0.40171168  0.93927130  0.22191776     1.93200
Cr21       Cr  0.43780059  0.90773172  0.28794670     1.39100
O22         O  0.43197235  0.93532215  0.25136661    -1.23400
O23         O  0.00638469  0.05485296  0.74754857    -0.85700
O24         O  0.03329623  0.03786601  0.66981393    -0.82700
C25         C  0.05097606  0.03185461  0.64055624     0.97800
O26         O  0.07444613  0.03126750  0.65505879    -0.82800
O27         O  0.08430692  0.08224747  0.67804166    -0.85400
C28         C  0.08361612  0.10402132  0.69887055     1.02300
O29         O  0.07772638  0.10551351  0.74406166    -0.78200
O30         O  0.02678560  0.09198798  0.74339298    -0.78300
C31         C  0.00683412  0.07862873  0.73493299     1.02300
O32         O  0.03795196  0.02060064  0.80861922    -0.85700
O33         O  0.06096753  0.99986161  0.72681741    -0.82700
C34         C  0.08490571  0.99741877  0.73699229     0.97800
O35         O  0.09802445  0.01726140  0.74798393    -0.82800
O36         O  0.11215828  0.06828990  0.76600776    -0.85400
C37         C  0.10763408  0.07239039  0.81120446     1.02300
O38         O  0.08473587  0.07102163  0.82692827    -0.78200
O39         O  0.03244700  0.06089575  0.83270991    -0.78300
C40         C  0.03188763  0.03654809  0.84151332     1.02200
Cr41       Cr  0.03632303  0.02982302  0.73914374     1.93700
Cr42       Cr  0.09028065  0.04999817  0.71417564     1.93200
Cr43       Cr  0.05564334  0.08046048  0.78440515     1.39100
O44         O  0.06087836  0.05336369  0.74624086    -1.23400
O45         O  0.18153041  0.74999869  0.50137960    -0.85700
O46         O  0.20368605  0.77546595  0.42494285    -0.82700
C47         C  0.21250900  0.79305022  0.39768713     0.97800
O48         O  0.21417757  0.81634407  0.41301637    -0.82800
O49         O  0.16359320  0.83074135  0.42807166    -0.85400
C50         C  0.14113749  0.83163998  0.44597568     1.02300
O51         O  0.13726921  0.82496715  0.49033713    -0.78200
O52         O  0.14606497  0.77282062  0.49334866    -0.78300
C53         C  0.15790795  0.75169990  0.48838523     1.02300
O54         O  0.21566776  0.77949372  0.56643472    -0.85700
O55         O  0.24142992  0.80043111  0.48723931    -0.82700
C56         C  0.24520695  0.82420883  0.49787418     0.97800
O57         O  0.22608423  0.83817647  0.50842382    -0.82800
O58         O  0.17650733  0.85694856  0.51776606    -0.85400
C59         C  0.17095725  0.85290737  0.56241832     1.02300
O60         O  0.16914411  0.82996512  0.57794300    -0.78200
O61         O  0.17439414  0.77731392  0.58578680    -0.78300
C62         C  0.19820668  0.77563576  0.59778240     1.02200
Cr63       Cr  0.20906603  0.77807557  0.49578222     1.93700
Cr64       Cr  0.19459640  0.83354954  0.46903925     1.93200
Cr65       Cr  0.15868496  0.80138305  0.53450913     1.39100
O66         O  0.18730034  0.80430908  0.49962857    -1.23400
O67         O  0.97621440  0.89358354  0.24206431    -0.85700
O68         O  0.92523455  0.87811292  0.25398449    -0.82700
C69         C  0.92215725  0.87838624  0.30027866     0.97800
O70         O  0.92508296  0.89937357  0.32323524    -0.82800
O71         O  0.93512165  0.95063759  0.34769560    -0.85400
C72         C  0.95964559  0.95216593  0.35288137     1.02300
O73         O  0.97406145  0.94624285  0.31795092    -0.78200
O74         O  0.99393091  0.93184933  0.23245317    -0.78300
C75         C  0.99584945  0.90816070  0.24497431     1.02300
O76         O  0.96289569  0.92570591  0.15729583    -0.85700
O77         O  0.91129386  0.91382282  0.17722399    -0.82700
C78         C  0.89001092  0.91206784  0.19971587     0.97800
O79         O  0.88930111  0.91465487  0.24620441    -0.82800
O80         O  0.90233842  0.96543697  0.26597020    -0.85400
C81         C  0.91540829  0.98568106  0.27407122     1.02300
O82         O  0.94006219  0.98428840  0.27428991    -0.78200
O83         O  0.95656283  0.96527435  0.18413710    -0.78300
C84         C  0.96321302  0.95025154  0.15003331     1.02200
Cr85       Cr  0.94380674  0.90458848  0.21012815     1.93700
Cr86       Cr  0.91471723  0.93229336  0.29286187     1.93200
Cr87       Cr  0.96440718  0.95544243  0.25172533     1.39100
O88         O  0.94068224  0.93094759  0.25109013    -1.23400
O89         O  0.84387078  0.21464222  0.49543611    -0.85700
O90         O  0.85814798  0.16400245  0.50281787    -0.82700
C91         C  0.86021390  0.16131795  0.54893062     0.97800
O92         O  0.84040783  0.16260148  0.57561098    -0.82800
O93         O  0.79132081  0.17270955  0.60975382    -0.85400
C94         C  0.79213963  0.19702487  0.61812477     1.02300
O95         O  0.79520859  0.21249829  0.58320141    -0.78200
O96         O  0.80657558  0.23424038  0.49674697    -0.78300
C97         C  0.83082591  0.23459428  0.50493825     1.02300
O98         O  0.80704595  0.20233691  0.41607933    -0.85700
O99         O  0.81872656  0.15049314  0.43234247    -0.82700
C100        C  0.82221842  0.12910765  0.45391964     0.97800
O101        O  0.82092416  0.12803209  0.50052402    -0.82800
O102        O  0.77113559  0.14234385  0.52908897    -0.85400
C103        C  0.75192398  0.15627295  0.53998807     1.02300
O104        O  0.75451360  0.18083707  0.54208327    -0.78200
O105        O  0.76882124  0.19957709  0.45091587    -0.78300
C106        C  0.78238297  0.20359604  0.41329098     1.02200
Cr107      Cr  0.83010801  0.18288058  0.46449098     1.93700
Cr108      Cr  0.80593633  0.15326021  0.55058643     1.93200
Cr109      Cr  0.78279494  0.20489454  0.51732641     1.39100
O110        O  0.80597511  0.18006244  0.51016726    -1.23400
O111        O  0.15018590  0.26925538  0.49670349    -0.85700
O112        O  0.13597648  0.32008973  0.50625166    -0.82700
C113        C  0.13530389  0.32294215  0.55244192     0.97800
O114        O  0.15571679  0.32059298  0.57715140    -0.82800
O115        O  0.20559524  0.31029538  0.60594754    -0.85400
C116        C  0.20557057  0.28582793  0.61303242     1.02300
O117        O  0.20217211  0.27074071  0.57759009    -0.78200
O118        O  0.18792478  0.25026169  0.49193291    -0.78300
C119        C  0.16392695  0.24933245  0.50230651     1.02300
O120        O  0.18392121  0.28164899  0.41421942    -0.85700
O121        O  0.17336384  0.33350746  0.43231706    -0.82700
C122        C  0.17054543  0.35489355  0.45425544     0.97800
O123        O  0.17292243  0.35582423  0.50074512    -0.82800
O124        O  0.22316319  0.34190880  0.52427026    -0.85400
C125        C  0.24288431  0.32828670  0.53272162     1.02300
O126        O  0.24076247  0.30369153  0.53369130    -0.78200
O127        O  0.22313987  0.28651923  0.44380614    -0.78300
C128        C  0.20841665  0.28115169  0.40843753     1.02200
Cr129      Cr  0.16268850  0.30117868  0.46502596     1.93700
Cr130      Cr  0.18928226  0.33037186  0.54898613     1.93200
Cr131      Cr  0.21199350  0.27962152  0.51107515     1.39100
O132        O  0.18818008  0.30393427  0.50801752    -1.23400
O133        O  0.01652163  0.59117395  0.24685109    -0.85700
O134        O  0.06722205  0.60605862  0.25510671    -0.82700
C135        C  0.07095766  0.60651710  0.30111602     0.97800
O136        O  0.06927603  0.58579224  0.32529598    -0.82800
O137        O  0.05858944  0.53580641  0.35319981    -0.85400
C138        C  0.03430650  0.53631058  0.36146568     1.02300
O139        O  0.01867805  0.53930324  0.32681273    -0.78200
O140        O  0.99731476  0.55347687  0.24153924    -0.78300
C141        C  0.99652474  0.57743715  0.25278253     1.02300
O142        O  0.02848360  0.55778879  0.16316578    -0.85700
O143        O  0.07992371  0.56917937  0.17961738    -0.82700
C144        C  0.10151875  0.57134811  0.20083448     0.97800
O145        O  0.10298562  0.56865957  0.24715919    -0.82800
O146        O  0.08897779  0.51829292  0.27000320    -0.85400
C147        C  0.07552658  0.49853851  0.27985336     1.02300
O148        O  0.05095601  0.50047485  0.28240373    -0.78200
O149        O  0.03299013  0.51829360  0.19221296    -0.78300
C150        C  0.02821894  0.53326037  0.15684822     1.02200
Cr151      Cr  0.04806696  0.57918718  0.21388601     1.93700
Cr152      Cr  0.07812339  0.55218912  0.29592204     1.93200
Cr153      Cr  0.02680772  0.52940226  0.25995348     1.39100
O154        O  0.05122106  0.55341648  0.25619077    -1.23400
O155        O  0.98931886  0.43021369  0.74849011    -0.85700
O156        O  0.96138347  0.44682216  0.67037606    -0.82700
C157        C  0.94328095  0.45395861  0.64288747     0.97800
O158        O  0.92006758  0.45404249  0.65845945    -0.82800
O159        O  0.91061639  0.40258759  0.68105491    -0.85400
C160        C  0.91139096  0.38082252  0.70205214     1.02300
O161        O  0.91799303  0.37934748  0.74695143    -0.78200
O162        O  0.96912764  0.39281107  0.74691162    -0.78300
C163        C  0.98927643  0.40599877  0.73949130     1.02300
O164        O  0.95877513  0.46451474  0.80951846    -0.85700
O165        O  0.93455999  0.48516724  0.72872982    -0.82700
C166        C  0.91060130  0.48774341  0.73884884     0.97800
O167        O  0.89755314  0.46798435  0.75098551    -0.82800
O168        O  0.88338917  0.41624415  0.76916738    -0.85400
C169        C  0.88810424  0.41138849  0.81404274     1.02300
O170        O  0.91089486  0.41376619  0.82989817    -0.78200
O171        O  0.96331127  0.42439172  0.83510235    -0.78300
C172        C  0.96493617  0.44880004  0.84281982     1.02200
Cr173      Cr  0.95927133  0.45503076  0.74022706     1.93700
Cr174      Cr  0.90492593  0.43494662  0.71737032     1.93200
Cr175      Cr  0.94006157  0.40457245  0.78718662     1.39100
O176        O  0.93466160  0.43157766  0.74867684    -1.23400
O177        O  0.34322770  0.71930291  0.98880301    -0.85700
O178        O  0.35702174  0.66818063  0.99458516    -0.82700
C179        C  0.35957284  0.66537071  0.04057883     0.97800
O180        O  0.34025157  0.66762388  0.06827111    -0.82800
O181        O  0.29142004  0.67808976  0.10404530    -0.85400
C182        C  0.29231707  0.70244642  0.11200247     1.02300
O183        O  0.29534977  0.71776594  0.07694153    -0.78200
O184        O  0.30590130  0.73896859  0.99009308    -0.78300
C185        C  0.33014477  0.73928235  0.99833652     1.02300
O186        O  0.30549913  0.70790926  0.91069837    -0.85700
O187        O  0.31680559  0.65540827  0.92565427    -0.82700
C188        C  0.32031653  0.63402447  0.94744853     0.97800
O189        O  0.31949886  0.63318054  0.99407972    -0.82800
O190        O  0.27046903  0.64740578  0.02441800    -0.85400
C191        C  0.25132996  0.66132137  0.03557143     1.02300
O192        O  0.25397519  0.68589014  0.03795877    -0.78200
O193        O  0.26778129  0.70385312  0.94663451    -0.79900
C194        C  0.28078814  0.70921214  0.90907290     1.02200
Cr195      Cr  0.32888408  0.68772762  0.95768565     1.93700
Cr196      Cr  0.30541880  0.65836896  0.04472106     1.93200
Cr197      Cr  0.28219425  0.70980060  0.01199045     1.39100
O198        O  0.30521302  0.68500247  0.00422197    -1.23400
O199        O  0.68036323  0.24719315  0.00859640    -0.85700
O200        O  0.70081179  0.27138248  0.92949928    -0.82700
C201        C  0.70933627  0.28825076  0.90050889     0.97800
O202        O  0.71091443  0.31187836  0.91388683    -0.82800
O203        O  0.66036259  0.32514132  0.93087682    -0.85400
C204        C  0.63832525  0.32727649  0.94990071     1.02300
O205        O  0.63520412  0.32174100  0.99513697    -0.78200
O206        O  0.64472935  0.26959923  0.00081842    -0.78300
C207        C  0.65677819  0.24861955  0.99527684     1.02300
O208        O  0.71540304  0.27752713  0.06990218    -0.85700
O209        O  0.73955290  0.29821094  0.98772419    -0.82700
C210        C  0.74306523  0.32243913  0.99524978     0.97800
O211        O  0.72391199  0.33628295  0.00613350    -0.82800
O212        O  0.67381919  0.35412055  0.01748737    -0.85400
C213        C  0.66860917  0.35105689  0.06263856     1.02300
O214        O  0.66833394  0.32850071  0.08053419    -0.78200
O215        O  0.67451528  0.27546393  0.09186932    -0.78300
C216        C  0.69855783  0.27263392  0.10202789     1.02200
Cr217      Cr  0.70758812  0.27536630  0.99969090     1.93700
Cr218      Cr  0.69181541  0.32994534  0.96960424     1.93200
Cr219      Cr  0.65762091  0.29886923  0.03984630     1.39100
O220        O  0.68568277  0.30144221  0.00334934    -1.23400
O221        O  0.47633956  0.39812878  0.74264802    -0.85700
O222        O  0.42568964  0.38254469  0.75141207    -0.82700
C223        C  0.42289414  0.38065729  0.79759799     0.97800
O224        O  0.42602710  0.40048000  0.82387197    -0.82800
O225        O  0.43513396  0.44996793  0.85710593    -0.85400
C226        C  0.45948243  0.44958237  0.86434117     1.02300
O227        O  0.47460393  0.44815952  0.82869907    -0.78200
O228        O  0.49547927  0.43601992  0.74268870    -0.78300
C229        C  0.49622693  0.41166307  0.75081244     1.02300
O230        O  0.46377838  0.43391663  0.66324181    -0.85700
O231        O  0.41195880  0.42184591  0.68089095    -0.82700
C232        C  0.39091064  0.41809138  0.70333725     0.97800
O233        O  0.39033711  0.41888758  0.74994794    -0.82800
O234        O  0.40320150  0.46862248  0.77694734    -0.85400
C235        C  0.41638085  0.48885817  0.78438287     1.02300
O236        O  0.44102693  0.48751849  0.78710444    -0.78200
O237        O  0.45928837  0.47231615  0.69644575    -0.78300
C238        C  0.46452444  0.45864185  0.65963516     1.02200
Cr239      Cr  0.44444479  0.41090016  0.71230604     1.93700
Cr240      Cr  0.41550066  0.43457620  0.79896074     1.93200
Cr241      Cr  0.46578534  0.45947286  0.76300211     1.39100
O242        O  0.44169124  0.43525930  0.75761576    -1.23400
O243        O  0.30816960  0.23895082  0.99884198    -0.85700
O244        O  0.28939359  0.20989591  0.92422774    -0.82700
C245        C  0.28155313  0.19144464  0.89812867     0.97800
O246        O  0.28102416  0.16843111  0.91520844    -0.82800
O247        O  0.33211416  0.15864326  0.93538801    -0.85400
C248        C  0.35421967  0.15852073  0.95478887     1.02300
O249        O  0.35702754  0.16635562  0.99875760    -0.78200
O250        O  0.34471540  0.21773200  0.99539489    -0.78300
C251        C  0.33210614  0.23813430  0.98762396     1.02300
O252        O  0.27440743  0.20927686  0.06423543    -0.85700
O253        O  0.25168367  0.18402721  0.98628802    -0.82700
C254        C  0.24918703  0.16020533  0.99834780     0.97800
O255        O  0.26889322  0.14767457  0.01131907    -0.82800
O256        O  0.31957557  0.13304138  0.02640957    -0.85400
C257        C  0.32439577  0.13852159  0.07096727     1.02300
O258        O  0.32423797  0.16184201  0.08478506    -0.78200
O259        O  0.31504449  0.21425550  0.08659574    -0.78300
C260        C  0.29087558  0.21537207  0.09627018     1.02200
Cr261      Cr  0.28244263  0.20890662  0.99447436     1.93700
Cr262      Cr  0.30077734  0.15395116  0.97417588     1.93200
Cr263      Cr  0.33331801  0.18982679  0.03901379     1.39100
O264        O  0.30548940  0.18416396  0.00294644    -1.23400
O265        O  0.51610040  0.09135707  0.74715303    -0.85700
O266        O  0.56713063  0.10480806  0.75861796    -0.82700
C267        C  0.56941957  0.10514603  0.80492305     0.97800
O268        O  0.56700400  0.08444055  0.82897109    -0.82800
O269        O  0.55468910  0.03437271  0.85456463    -0.85400
C270        C  0.53026561  0.03469368  0.86064494     1.02300
O271        O  0.51556040  0.03874146  0.82490811    -0.78200
O272        O  0.49673485  0.05392099  0.73827802    -0.78300
C273        C  0.49599839  0.07758042  0.75126949     1.02300
O274        O  0.52862695  0.05820946  0.66350242    -0.85700
O275        O  0.58018421  0.06794075  0.68389924    -0.82700
C276        C  0.60140981  0.06917090  0.70673440     0.97800
O277        O  0.60191141  0.06664149  0.75312859    -0.82800
O278        O  0.58631281  0.01654100  0.77390699    -0.85400
C279        C  0.57197842  0.99693681  0.78004933     1.02300
O280        O  0.54753656  0.99956819  0.78171163    -0.78200
O281        O  0.53284621  0.01847155  0.69124135    -0.78300
C282        C  0.52885881  0.03376520  0.65610322     1.02200
Cr283      Cr  0.54797121  0.07876840  0.71587695     1.93700
Cr284      Cr  0.57572487  0.05065190  0.79960134     1.93200
Cr285      Cr  0.52495119  0.02917085  0.75858107     1.39100
O286        O  0.54979279  0.05270170  0.75777580    -1.23400
O287        O  0.64458806  0.76993770  0.99288243    -0.85700
O288        O  0.63160392  0.82103536  0.00042540    -0.82700
C289        C  0.62989521  0.82408280  0.04648676     0.97800
O290        O  0.64965399  0.82147388  0.07313651    -0.82800
O291        O  0.69931168  0.81021653  0.10557779    -0.85400
C292        C  0.69878463  0.78583360  0.11361970     1.02300
O293        O  0.69490196  0.77048720  0.07875238    -0.78200
O294        O  0.68165966  0.74973552  0.99215985    -0.78300
C295        C  0.65748464  0.74974334  0.00108738     1.02300
O296        O  0.68054014  0.78073610  0.91308330    -0.85700
O297        O  0.67103310  0.83298030  0.92944089    -0.82700
C298        C  0.66715870  0.85424422  0.95110341     0.97800
O299        O  0.66913340  0.85539369  0.99757838    -0.82800
O300        O  0.71883637  0.84059290  0.02420088    -0.85400
C301        C  0.73811564  0.82648989  0.03369532     1.02300
O302        O  0.73525005  0.80197478  0.03625324    -0.78200
O303        O  0.71902609  0.78451881  0.94592435    -0.78300
C304        C  0.70510779  0.77960483  0.90918782     1.02200
Cr305      Cr  0.65873369  0.80116113  0.96172018     1.93700
Cr306      Cr  0.68420331  0.83011830  0.04721528     1.93200
Cr307      Cr  0.70623343  0.77847030  0.01247472     1.39100
O308        O  0.68322603  0.80342047  0.00687205    -1.23400
O309        O  0.80955261  0.73865635  0.51014858    -0.85700
O310        O  0.78861978  0.71404757  0.43192025    -0.82700
C311        C  0.78061661  0.69690479  0.40289252     0.97800
O312        O  0.77938467  0.67323901  0.41645253    -0.82800
O313        O  0.83016875  0.65980753  0.43346529    -0.85400
C314        C  0.85239093  0.65857469  0.45238894     1.02300
O315        O  0.85540168  0.66440021  0.49739111    -0.78200
O316        O  0.84536318  0.71650031  0.50153151    -0.78300
C317        C  0.83329776  0.73757522  0.49756749     1.02300
O318        O  0.77535816  0.70748422  0.57247678    -0.85700
O319        O  0.75061205  0.68701283  0.49079985    -0.82700
C320        C  0.74720305  0.66284949  0.49896944     0.97800
O321        O  0.76652417  0.64907195  0.50925553    -0.82800
O322        O  0.81684955  0.63159259  0.52133110    -0.85400
C323        C  0.82257515  0.63514313  0.56625436     1.02300
O324        O  0.82308861  0.65783288  0.58342776    -0.78200
O325        O  0.81651757  0.71067328  0.59261913    -0.78300
C326        C  0.79261136  0.71238696  0.60378636     1.02200
Cr327      Cr  0.78253149  0.71000949  0.50214043     1.93700
Cr328      Cr  0.79864276  0.65536049  0.47256226     1.93200
Cr329      Cr  0.83308993  0.68723928  0.54136626     1.39100
O330        O  0.80477935  0.68414986  0.50547632    -1.23400
O331        O  0.50352738  0.55597803  0.24208882    -0.85700
O332        O  0.53306413  0.53800993  0.16772176    -0.82700
C333        C  0.55188927  0.53112094  0.14178368     0.97800
O334        O  0.57475081  0.53127163  0.15919244    -0.82800
O335        O  0.58362069  0.58255566  0.18138141    -0.85400
C336        C  0.58191237  0.60442401  0.20161030     1.02300
O337        O  0.57504045  0.60624748  0.24610122    -0.78200
O338        O  0.52418063  0.59297846  0.23911855    -0.78300
C339        C  0.50443473  0.57963899  0.22884299     1.02300
O340        O  0.53266293  0.52231530  0.30836924    -0.85700
O341        O  0.55838177  0.50054393  0.22926874    -0.82700
C342        C  0.58225268  0.49808765  0.24008732     0.97800
O343        O  0.59498692  0.51772527  0.25394394    -0.82800
O344        O  0.60869241  0.56911667  0.27299460    -0.85400
C345        C  0.60275276  0.57398396  0.31737146     1.02300
O346        O  0.57937350  0.57286116  0.33044921    -0.78200
O347        O  0.52688121  0.56295204  0.33017736    -0.78300
C348        C  0.52646339  0.53880789  0.34037711     1.02200
Cr349      Cr  0.53354339  0.53075250  0.23810879     1.93700
Cr350      Cr  0.58848619  0.55052387  0.21911148     1.93200
Cr351      Cr  0.55164266  0.58175926  0.28409363     1.39100
O352        O  0.55803963  0.55420804  0.24757054    -1.23400
C353        C  0.72189492  0.64974688  0.48775202    -0.20200
C354        C  0.71894562  0.62236608  0.49259086     0.36000
C355        C  0.69835942  0.60960057  0.46857338    -0.26200
C356        C  0.68015410  0.62348320  0.44115098     0.02500
C357        C  0.68144702  0.65087944  0.44012594     0.27300
C358        C  0.70230333  0.66376335  0.46341286    -0.25300
N359        N  0.73739778  0.60739929  0.52019240    -0.82700
H360        H  0.69685719  0.58858051  0.47010839     0.13100
C361        C  0.66080491  0.60894139  0.41133378     0.02400
N362        N  0.66209810  0.66540920  0.41395696    -0.81200
H363        H  0.70406205  0.68468311  0.45985063     0.17900
C364        C  0.63507362  0.60724066  0.42723133    -0.26100
C365        C  0.61607373  0.59431434  0.39906413     0.35900
C366        C  0.62285121  0.58356725  0.35276930    -0.20100
C367        C  0.64901875  0.58446880  0.33812190    -0.25400
C368        C  0.66803688  0.59688820  0.36703873     0.27300
H369        H  0.62981554  0.61610770  0.46183230     0.13100
N370        N  0.58989914  0.59266433  0.41709213    -0.82600
H371        H  0.65460936  0.57606040  0.30332414     0.17900
N372        N  0.69464460  0.59769107  0.35127564    -0.81200
H373        H  0.58600188  0.57306121  0.42440417     0.33500
H374        H  0.58809400  0.60244850  0.45049276     0.38000
H375        H  0.69686496  0.58770286  0.31818033     0.33500
H376        H  0.69945350  0.61712516  0.34434843     0.30200
H377        H  0.66573674  0.68537383  0.41687232     0.33500
H378        H  0.66372085  0.66071043  0.37681372     0.30200
H379        H  0.73590632  0.61314639  0.55681705     0.38100
H380        H  0.73273506  0.58758536  0.51909449     0.33600
C381        C  0.64453718  0.72700375  0.02449716    -0.20200
C382        C  0.61908692  0.72898857  0.04394778     0.36000
C383        C  0.60900382  0.70891162  0.07287778    -0.26200
C384        C  0.62353686  0.68667162  0.08267268     0.02500
C385        C  0.64820348  0.68365296  0.06116757     0.27300
C386        C  0.65859816  0.70399893  0.03263024    -0.25300
N387        N  0.60349971  0.75159809  0.03568482    -0.82700
H388        H  0.58975729  0.71087155  0.08844470     0.13100
C389        C  0.61209906  0.66652123  0.11459506     0.02400
N390        N  0.66231835  0.65981888  0.06756454    -0.81200
H391        H  0.67793547  0.70206401  0.01757020     0.17900
C392        C  0.59385688  0.64930381  0.09458068    -0.26100
C393        C  0.58238367  0.62989731  0.12354245     0.35900
C394        C  0.58967496  0.62750582  0.17319324    -0.20100
C395        C  0.60674861  0.64572371  0.19396422    -0.25400
C396        C  0.61801152  0.66537960  0.16504677     0.27300
H397        H  0.58866659  0.65100149  0.05621832     0.13100
N398        N  0.56333869  0.61257074  0.10288703    -0.82600
H399        H  0.61207845  0.64398405  0.23224721     0.17900
N400        N  0.63512530  0.68430829  0.18672605    -0.81200
H401        H  0.56008986  0.61694988  0.06597853     0.33500
H402        H  0.54581125  0.61585585  0.12112955     0.38000
H403        H  0.63667186  0.68126044  0.22449335     0.33500
H404        H  0.65365083  0.68141484  0.17233133     0.30200
H405        H  0.67984962  0.66052180  0.04834532     0.33500
H406        H  0.66715016  0.65804797  0.10456817     0.30200
H407        H  0.59883607  0.75970482  0.06967620     0.38100
H408        H  0.58624070  0.74570153  0.01873360     0.33600
C409        C  0.71819386  0.77103742  0.86308336    -0.20200
C410        C  0.70449364  0.76352852  0.82030105     0.36000
C411        C  0.71839107  0.75440000  0.77931624    -0.26200
C412        C  0.74555613  0.75199474  0.78031394     0.02500
C413        C  0.75924524  0.75976531  0.82252689     0.27300
C414        C  0.74552758  0.76941464  0.86299190    -0.25300
N415        N  0.67665297  0.76493789  0.81840350    -0.82700
H416        H  0.70793980  0.74868124  0.74653744     0.13100
C417        C  0.75933803  0.74074905  0.73732251     0.02400
N418        N  0.78702010  0.75728992  0.82458516    -0.81200
H419        H  0.75642622  0.77512107  0.89522849     0.17900
C420        C  0.77918308  0.75502125  0.71415679    -0.26100
C421        C  0.79181585  0.74532362  0.67222677     0.35900
C422        C  0.78405366  0.72111817  0.65270099    -0.20100
C423        C  0.76475598  0.70657293  0.67661893    -0.25400
C424        C  0.75261478  0.71592376  0.71913072     0.27300
H425        H  0.78436838  0.77407140  0.72815749     0.13100
N426        N  0.81130226  0.76061838  0.64779655    -0.82600
H427        H  0.75885172  0.68796578  0.66148205     0.17900
N428        N  0.73333045  0.70041892  0.74371618    -0.81200
H429        H  0.81399959  0.77839116  0.66577565     0.33500
H430        H  0.82886796  0.75063554  0.65068341     0.38000
H431        H  0.73054570  0.68272033  0.72552476     0.33500
H432        H  0.74054314  0.69591598  0.77850524     0.30200
H433        H  0.79419963  0.76401262  0.85814230     0.33500
H434        H  0.79139066  0.73746895  0.82278509     0.30200
H435        H  0.66935070  0.75065580  0.84198579     0.38100
H436        H  0.66987608  0.76011616  0.78342100     0.33600
C437        C  0.76949360  0.70584131  0.35609313    -0.20200
C438        C  0.78236615  0.72490715  0.32792371     0.36000
C439        C  0.76894021  0.73763053  0.29007684    -0.26200
C440        C  0.74235091  0.73301358  0.28177142     0.02500
C441        C  0.72957234  0.71366280  0.31009636     0.27300
C442        C  0.74353796  0.69977984  0.34582724    -0.25300
N443        N  0.80879914  0.73184589  0.33904812    -0.82700
H444        H  0.77922214  0.75162381  0.26758609     0.13100
C445        C  0.72849701  0.74810563  0.24268973     0.02400
N446        N  0.70220719  0.70898080  0.30426128    -0.81200
H447        H  0.73350691  0.68570367  0.36862908     0.17900
C448        C  0.71212469  0.73483548  0.20999324    -0.26100
C449        C  0.69995007  0.74770116  0.17119459     0.35900
C450        C  0.70548203  0.77421053  0.16191222    -0.20100
C451        C  0.72089589  0.78796744  0.19560642    -0.25400
C452        C  0.73201148  0.77533300  0.23649064     0.27300
H453        H  0.70918318  0.71405346  0.21349732     0.13100
N454        N  0.68215116  0.73353571  0.14074259    -0.82600
H455        H  0.72505495  0.80835748  0.18916011     0.17900
N456        N  0.74707908  0.79000089  0.27129039    -0.81200
H457        H  0.66699691  0.72681412  0.16282774     0.33500
H458        H  0.69178491  0.71742716  0.12620380     0.38000
H459        H  0.74789997  0.80962689  0.26130632     0.33500
H460        H  0.73741678  0.78913308  0.30491191     0.30200
H461        H  0.69588832  0.69420064  0.32776536     0.33500
H462        H  0.69250838  0.72590921  0.31475977     0.30200
H463        H  0.82030151  0.71552809  0.33232614     0.38100
H464        H  0.81535825  0.74656148  0.31563428     0.33600
C465        C  0.65639462  0.87634586  0.92234946    -0.20200
C466        C  0.64166556  0.89623936  0.94482721     0.36000
C467        C  0.62734338  0.91344764  0.91546714    -0.26200
C468        C  0.62708364  0.91126445  0.86421390     0.02500
C469        C  0.64244905  0.89209582  0.84155572     0.27300
C470        C  0.65708776  0.87504101  0.87078474    -0.25300
N471        N  0.64027911  0.89831214  0.99729687    -0.82700
H472        H  0.61606959  0.92863950  0.93276039     0.13100
C473        C  0.61113188  0.92985724  0.83531994     0.02400
N474        N  0.64251992  0.88949902  0.78909656    -0.81200
H475        H  0.66823783  0.85988762  0.85310829     0.17900
C476        C  0.62307966  0.94530790  0.79939101    -0.26100
C477        C  0.60972403  0.96591752  0.77700701     0.35900
C478        C  0.58410836  0.97160174  0.79181724    -0.20100
C479        C  0.57143442  0.95474685  0.82458554    -0.25400
C480        C  0.58464692  0.93382410  0.84627513     0.27300
H481        H  0.64329051  0.94208947  0.79044359     0.13100
N482        N  0.62233400  0.98162016  0.74044023    -0.82600
H483        H  0.55166309  0.95879845  0.83562433     0.17900
N484        N  0.57158182  0.91711735  0.88066389    -0.81200
H485        H  0.64113304  0.97490825  0.73381323     0.33500
H486        H  0.61200462  0.97928436  0.70771464     0.38000
H487        H  0.55227274  0.92281898  0.88513596     0.33500
H488        H  0.57114389  0.89841098  0.86563288     0.30200
H489        H  0.65486852  0.87448095  0.77823123     0.33500
H490        H  0.62379220  0.88408779  0.77824865     0.30200
H491        H  0.65857832  0.90419810  0.00974254     0.38100
H492        H  0.62731227  0.91289396  0.00770253     0.33600
C493        C  0.47260889  0.08907137  0.77445976    -0.20200
C494        C  0.45381311  0.07357160  0.79867665     0.36000
C495        C  0.43514384  0.08562950  0.82846442    -0.26200
C496        C  0.43441720  0.11277408  0.83372986     0.02500
C497        C  0.45229725  0.12831284  0.80789758     0.27300
C498        C  0.47128490  0.11632932  0.77887867    -0.25300
N499        N  0.45430396  0.04568813  0.79476242    -0.82700
H500        H  0.42116881  0.07378962  0.84814707     0.13100
C501        C  0.41419501  0.12465532  0.86513985     0.02400
N502        N  0.45115899  0.15619083  0.81146450    -0.81200
H503        H  0.48549355  0.12840360  0.76035329     0.17900
C504        C  0.42130418  0.14015522  0.90549619    -0.26100
C505        C  0.40236997  0.15142843  0.93611732     0.35900
C506        C  0.37580589  0.14719081  0.92566255    -0.20100
C507        C  0.36901134  0.13158542  0.88509749    -0.25400
C508        C  0.38779273  0.12048818  0.85474354     0.27300
H509        H  0.44170997  0.14324818  0.91330173     0.13100
N510        N  0.41009157  0.16746979  0.97676572    -0.82600
H511        H  0.34877021  0.12793772  0.87667814     0.17900
N512        N  0.38014893  0.10519339  0.81295551    -0.81200
H513        H  0.43025551  0.16985327  0.97730409     0.33500
H514        H  0.40533418  0.15744455  0.00886091     0.38000
H515        H  0.35993419  0.10380094  0.81059790     0.33500
H516        H  0.38634474  0.11505788  0.78154481     0.30200
H517        H  0.46583533  0.16480262  0.79050778     0.33500
H518        H  0.43353435  0.16210892  0.79614816     0.30200
H519        H  0.44936777  0.04090624  0.75869753     0.38100
H520        H  0.44005785  0.03726886  0.81702158     0.33600
C521        C  0.47269208  0.47177517  0.61305195    -0.20200
C522        C  0.47957018  0.49855651  0.61169973     0.36000
C523        C  0.48775797  0.51008151  0.56759137    -0.26200
C524        C  0.48944651  0.49559444  0.52425372     0.02500
C525        C  0.48246948  0.46897688  0.52512361     0.27300
C526        C  0.47430327  0.45735530  0.56938799    -0.25300
N527        N  0.47893064  0.51415803  0.65519316    -0.82700
H528        H  0.49335043  0.53043258  0.56746129     0.13100
C529        C  0.49944179  0.50817633  0.47860725     0.02400
N530        N  0.48363254  0.45386209  0.48087655    -0.81200
H531        H  0.46908353  0.43692400  0.56965660     0.17900
C532        C  0.52161090  0.49793985  0.45603324    -0.26100
C533        C  0.53114117  0.50827008  0.41184115     0.35900
C534        C  0.51825047  0.52938371  0.38945682    -0.20100
C535        C  0.49676509  0.54046672  0.41308015    -0.25400
C536        C  0.48709006  0.52994045  0.45728118     0.27300
H537        H  0.53147358  0.48167702  0.47298191     0.13100
N538        N  0.55398518  0.49745484  0.38962761    -0.82600
H539        H  0.48691842  0.55671169  0.39604739     0.17900
N540        N  0.46442581  0.54083177  0.47991422    -0.81200
H541        H  0.56112065  0.48202118  0.41056444     0.33500
H542        H  0.56835637  0.51188304  0.38981412     0.38000
H543        H  0.45765213  0.55668907  0.45968444     0.33500
H544        H  0.44979077  0.52668807  0.47889471     0.30200
H545        H  0.47798921  0.43462995  0.48755565     0.33500
H546        H  0.47007942  0.46157825  0.45638167     0.30200
H547        H  0.46645738  0.52980841  0.64898257     0.38100
H548        H  0.49757074  0.52161387  0.66130939     0.33600
C549        C  0.47147077  0.45336389  0.91317842    -0.20200
C550        C  0.49753116  0.44568581  0.92095470     0.36000
C551        C  0.51179434  0.45674908  0.95942011    -0.26200
C552        C  0.50029997  0.47439575  0.99173339     0.02500
C553        C  0.47335853  0.47934140  0.98793588     0.27300
C554        C  0.45921049  0.46896830  0.94824315    -0.25300
N555        N  0.50983830  0.42778105  0.88791550    -0.82700
H556        H  0.53232391  0.45259205  0.96256939     0.13100
C557        C  0.51706732  0.48923992  0.02632228     0.02400
N558        N  0.46077456  0.49567922  0.02336329    -0.81200
H559        H  0.43913899  0.47451282  0.94293640     0.17900
C560        C  0.51560411  0.51650586  0.02634966    -0.26100
C561        C  0.52943627  0.53144444  0.06038741     0.35900
C562        C  0.54571486  0.51886658  0.09462312    -0.20100
C563        C  0.54926371  0.49188115  0.09145934    -0.25400
C564        C  0.53472592  0.47680718  0.05824163     0.27300
H565        H  0.50293404  0.52628241  0.00058526     0.13100
N566        N  0.52564394  0.55913929  0.06053404    -0.82600
H567        H  0.56141264  0.48223993  0.11831040     0.17900
N568        N  0.53676592  0.44892232  0.05877787    -0.81200
H569        H  0.53184297  0.56624747  0.02658625     0.33500
H570        H  0.53741394  0.56811890  0.08669089     0.38000
H571        H  0.55055990  0.44292874  0.08450212     0.33500
H572        H  0.51889645  0.44142384  0.07032363     0.30200
H573        H  0.44103335  0.49750937  0.01521992     0.33500
H574        H  0.46194221  0.48632433  0.05730771     0.30200
H575        H  0.52932073  0.42518194  0.89721281     0.38100
H576        H  0.50064998  0.40973868  0.89187281     0.33600
C577        C  0.41319088  0.35656543  0.82194756    -0.20200
C578        C  0.39624386  0.33878116  0.79840808     0.36000
C579        C  0.38293809  0.31994843  0.82662403    -0.26200
C580        C  0.38634453  0.31841411  0.87766143     0.02500
C581        C  0.40414339  0.33538176  0.90069097     0.27300
C582        C  0.41748656  0.35398154  0.87263429    -0.25300
N583        N  0.39163273  0.34060212  0.74658446    -0.82700
H584        H  0.36966384  0.30652975  0.80885231     0.13100
C585        C  0.37177804  0.29863282  0.90681227     0.02400
N586        N  0.40798605  0.33421440  0.95285758    -0.81200
H587        H  0.43053007  0.36740470  0.89101381     0.17900
C588        C  0.38581479  0.28072268  0.93481303    -0.26100
C589        C  0.37325387  0.26200077  0.96383248     0.35900
C590        C  0.34574402  0.26045467  0.96385977    -0.20100
C591        C  0.33161645  0.27877834  0.93652788    -0.25400
C592        C  0.34436662  0.29795086  0.90822238     0.27300
H593        H  0.40683720  0.28137824  0.93398318     0.13100
N594        N  0.38846969  0.24447887  0.99313314    -0.82600
H595        H  0.31061163  0.27773595  0.93620525     0.17900
N596        N  0.32962871  0.31667549  0.88086992    -0.81200
H597        H  0.38442343  0.24847584  0.02989733     0.33500
H598        H  0.40831810  0.24792712  0.98828012     0.38000
H599        H  0.30973282  0.31347787  0.88558507     0.33500
H600        H  0.33367704  0.33503938  0.89555104     0.30200
H601        H  0.42178913  0.34794432  0.96410421     0.33500
H602        H  0.39048739  0.33934370  0.96956412     0.30200
H603        H  0.40890410  0.33566301  0.72886597     0.38100
H604        H  0.37777945  0.32687997  0.73552637     0.33600
C605        C  0.61718854  0.33864972  0.91936106    -0.20200
C606        C  0.61917205  0.33948088  0.86741992     0.36000
C607        C  0.60092376  0.35359332  0.84000596    -0.26200
C608        C  0.58044635  0.36651982  0.86284341     0.02500
C609        C  0.57792720  0.36527262  0.91425859     0.27300
C610        C  0.59629652  0.35133586  0.94204009    -0.25300
N611        N  0.63958124  0.32582564  0.84247839    -0.82700
H612        H  0.60229321  0.35403775  0.80038416     0.13100
C613        C  0.56001688  0.37836094  0.83180660     0.02400
N614        N  0.55679150  0.37830891  0.93799820    -0.81200
H615        H  0.59471008  0.35106028  0.98161414     0.17900
C616        C  0.53809814  0.36339012  0.82110843    -0.26100
C617        C  0.51804309  0.37305379  0.79158377     0.35900
C618        C  0.51943268  0.39899925  0.77348320    -0.20100
C619        C  0.54208401  0.41364895  0.78280921    -0.25400
C620        C  0.56253877  0.40342622  0.81135617     0.27300
H621        H  0.53672750  0.34384819  0.83583696     0.13100
N622        N  0.49607152  0.35660852  0.78104440    -0.82600
H623        H  0.54358393  0.43333075  0.76890333     0.17900
N624        N  0.58570806  0.41839709  0.81998175    -0.81200
H625        H  0.49759136  0.33875873  0.79917267     0.33500
H626        H  0.49652590  0.35240607  0.74356809     0.38000
H627        H  0.58465102  0.43632327  0.80199056     0.33500
H628        H  0.58664355  0.42242995  0.85748070     0.30200
H629        H  0.55717413  0.37483235  0.97573072     0.33500
H630        H  0.55987461  0.39826585  0.93351774     0.30200
H631        H  0.63660743  0.30594127  0.84836244     0.38100
H632        H  0.63847719  0.32876540  0.80461819     0.33600
C633        C  0.66015460  0.37323619  0.09400738    -0.20200
C634        C  0.65887076  0.39914653  0.07654347     0.36000
C635        C  0.64726605  0.41841215  0.10587652    -0.26200
C636        C  0.63717052  0.41247366  0.15232397     0.02500
C637        C  0.63941434  0.38703991  0.17067709     0.27300
C638        C  0.65084307  0.36774935  0.14149248    -0.25300
N639        N  0.66882275  0.40580359  0.02895859    -0.82700
H640        H  0.64564082  0.43811884  0.09214525     0.13100
C641        C  0.62378578  0.43300549  0.18089144     0.02400
N642        N  0.62980489  0.38087365  0.21875071    -0.81200
H643        H  0.65182707  0.34810831  0.15570440     0.17900
C644        C  0.59718703  0.43046508  0.19096940    -0.26100
C645        C  0.58334303  0.45061030  0.21402945     0.35900
C646        C  0.59644841  0.47382351  0.22725715    -0.20100
C647        C  0.62348080  0.47545257  0.21984565    -0.25400
C648        C  0.63719483  0.45539102  0.19658595     0.27300
H649        H  0.58703816  0.41302440  0.17929117     0.13100
N650        N  0.55595973  0.44783947  0.22267768    -0.82600
H651        H  0.63384364  0.49306569  0.22973065     0.17900
N652        N  0.66458588  0.45791117  0.18762301    -0.81200
H653        H  0.54928207  0.42978875  0.21014440     0.33500
H654        H  0.55312332  0.44803570  0.26060451     0.38000
H655        H  0.67155003  0.47570583  0.20088451     0.33500
H656        H  0.67395451  0.44338155  0.20767358     0.30200
H657        H  0.63271905  0.36120770  0.22674334     0.33500
H658        H  0.64083466  0.39146593  0.24406144     0.30200
H659        H  0.68894626  0.40328816  0.03000079     0.38100
H660        H  0.66567156  0.42546950  0.02131906     0.33600
C661        C  0.57758382  0.12906705  0.83102637    -0.20200
C662        C  0.56961211  0.13393625  0.87970669     0.36000
C663        C  0.58152563  0.15407661  0.90650221    -0.26200
C664        C  0.60114532  0.16944952  0.88558385     0.02500
C665        C  0.60801002  0.16560463  0.83607660     0.27300
C666        C  0.59610821  0.14546629  0.80923013    -0.25300
N667        N  0.54979106  0.11810837  0.90195859    -0.82700
H668        H  0.57606602  0.15731550  0.94434191     0.13100
C669        C  0.61500772  0.18889033  0.91636719     0.02400
N670        N  0.62743959  0.18184263  0.81367690    -0.81200
H671        H  0.60224426  0.14176439  0.77191378     0.17900
C672        C  0.64185833  0.18642337  0.92365316    -0.26100
C673        C  0.65602845  0.20504461  0.95060380     0.35900
C674        C  0.64287377  0.22639020  0.97173348    -0.20100
C675        C  0.61572399  0.22810126  0.96587222    -0.25400
C676        C  0.60175180  0.20979403  0.93808103     0.27300
H677        H  0.65189066  0.17012723  0.90721474     0.13100
N678        N  0.68370833  0.20262865  0.95514313    -0.82600
H679        H  0.60533090  0.24429775  0.98181671     0.17900
N680        N  0.57426711  0.21270498  0.93078175    -0.81200
H681        H  0.69004974  0.18526564  0.93929608     0.33500
H682        H  0.69213091  0.21762483  0.93466003     0.38000
H683        H  0.56742021  0.22910159  0.94931190     0.33500
H684        H  0.57115600  0.21607070  0.89345679     0.30200
H685        H  0.63045524  0.17633620  0.77725079     0.33500
H686        H  0.62024986  0.20082826  0.81287877     0.30200
H687        H  0.53258923  0.12110573  0.88242039     0.38100
H688        H  0.54627585  0.12415352  0.93791674     0.33600
C689        C  0.32885627  0.61084581  0.91860134    -0.20200
C690        C  0.33961675  0.58872312  0.94168190     0.36000
C691        C  0.35259191  0.56996627  0.91368008    -0.26200
C692        C  0.35522437  0.57258658  0.86280387     0.02500
C693        C  0.34275066  0.59339515  0.83888551     0.27300
C694        C  0.32967259  0.61228424  0.86699006    -0.25300
N695        N  0.33843527  0.58558464  0.99377789    -0.82700
H696        H  0.36149595  0.55359056  0.93212150     0.13100
C697        C  0.37218573  0.55392010  0.83621146     0.02400
N698        N  0.34419125  0.59578224  0.78647952    -0.81200
H699        H  0.32115442  0.62884285  0.84854606     0.17900
C700        C  0.36166908  0.53755805  0.80014506    -0.26100
C701        C  0.37649621  0.51738391  0.77946967     0.35900
C702        C  0.40234004  0.51337174  0.79561140    -0.20100
C703        C  0.41337273  0.53105436  0.82890444    -0.25400
C704        C  0.39857523  0.55128024  0.84929262     0.27300
H705        H  0.34153271  0.53986733  0.78957694     0.13100
N706        N  0.36517084  0.50049327  0.74320047    -0.82600
H707        H  0.43315449  0.52822553  0.84124716     0.17900
N708        N  0.40997778  0.56873546  0.88449162    -0.81200
H709        H  0.34604613  0.50593203  0.73566672     0.33500
H710        H  0.37562333  0.50302156  0.71071725     0.38000
H711        H  0.42944486  0.56407334  0.89061499     0.33500
H712        H  0.40977475  0.58739554  0.86925981     0.30200
H713        H  0.33390329  0.61209661  0.77456761     0.33500
H714        H  0.36362678  0.59897685  0.77721834     0.30200
H715        H  0.35742201  0.58448798  0.00718085     0.38100
H716        H  0.32913124  0.56791179  0.00125845     0.33600
C717        C  0.48301599  0.59229131  0.20070695    -0.20200
C718        C  0.46218708  0.57821706  0.17939880     0.36000
C719        C  0.44337370  0.59156544  0.15159780    -0.26200
C720        C  0.44545484  0.61842555  0.14266520     0.02500
C721        C  0.46655909  0.63233293  0.16272960     0.27300
C722        C  0.48475146  0.61927784  0.19196025    -0.25300
N723        N  0.46034961  0.55047566  0.18507247    -0.82700
H724        H  0.42706583  0.58090361  0.13639625     0.13100
C725        C  0.42511706  0.63193555  0.11335674     0.02400
N726        N  0.46966384  0.65964585  0.15273412    -0.81200
H727        H  0.50076279  0.63035452  0.20720719     0.17900
C728        C  0.41246324  0.65353156  0.13370482    -0.26100
C729        C  0.39225796  0.66607126  0.10865889     0.35900
C730        C  0.38426880  0.65665944  0.06246845    -0.20100
C731        C  0.39757262  0.63580434  0.04102719    -0.25400
C732        C  0.41792036  0.62328989  0.06605275     0.27300
H733        H  0.41791697  0.66021073  0.16995103     0.13100
N734        N  0.37938076  0.68799162  0.13037515    -0.82600
H735        H  0.39121155  0.62842320  0.00577698     0.17900
N736        N  0.43095984  0.60156239  0.04406015    -0.81200
H737        H  0.38743767  0.69237430  0.16458884     0.33500
H738        H  0.38291838  0.70409963  0.10797972     0.38000
H739        H  0.42313336  0.59745223  0.00952942     0.33500
H740        H  0.45030602  0.60699028  0.03846596     0.30200
H741        H  0.48615618  0.66705160  0.17029652     0.33500
H742        H  0.47283814  0.66171110  0.11509582     0.30200
H743        H  0.47586645  0.54227784  0.16591858     0.38100
H744        H  0.44347075  0.54334542  0.16843249     0.33600
C745        C  0.83184461  0.61326451  0.59746572    -0.20200
C746        C  0.83224066  0.61502985  0.64932856     0.36000
C747        C  0.84565297  0.59618435  0.67689091    -0.26200
C748        C  0.85831199  0.57545291  0.65388783     0.02500
C749        C  0.85649388  0.57267100  0.60256489     0.27300
C750        C  0.84338570  0.59163790  0.57490636    -0.25300
N751        N  0.81912105  0.63595633  0.67382315    -0.82700
H752        H  0.84632702  0.59766965  0.71648203     0.13100
C753        C  0.87202750  0.55572686  0.68392422     0.02400
N754        N  0.86753756  0.55032015  0.57882592    -0.81200
H755        H  0.84300575  0.58996150  0.53534185     0.17900
C756        C  0.85749042  0.53592459  0.70600258    -0.26100
C757        C  0.86963763  0.51471174  0.72895443     0.35900
C758        C  0.89712775  0.51287800  0.72850240    -0.20100
C759        C  0.91159456  0.53406729  0.71015513    -0.25400
C760        C  0.89930232  0.55559863  0.68829934     0.27300
H761        H  0.83649999  0.53660589  0.70379899     0.13100
N762        N  0.85401872  0.49456371  0.75071250    -0.82600
H763        H  0.93260277  0.53334848  0.71077187     0.17900
N764        N  0.91436845  0.57726898  0.67063003    -0.81200
H765        H  0.83425789  0.49857672  0.74657635     0.33500
H766        H  0.85775799  0.49472168  0.78837387     0.38000
H767        H  0.93411559  0.57433055  0.67754998     0.33500
H768        H  0.91233273  0.57823904  0.63263548     0.30200
H769        H  0.86382579  0.55080683  0.54115160     0.33500
H770        H  0.88766985  0.55124137  0.58278707     0.30200
H771        H  0.79927369  0.63391029  0.66666626     0.38100
H772        H  0.82137080  0.63445573  0.71180091     0.33600
C773        C  0.86762352  0.40010564  0.84660880    -0.20200
C774        C  0.87251712  0.39412768  0.89655788     0.36000
C775        C  0.85378179  0.38075361  0.92432710    -0.26200
C776        C  0.83020104  0.37300248  0.90345738     0.02500
C777        C  0.82496746  0.37901726  0.85404829     0.27300
C778        C  0.84362647  0.39259487  0.82621858    -0.25300
N779        N  0.89653429  0.40134825  0.91941779    -0.82700
H780        H  0.85769822  0.37635550  0.96245966     0.13100
C781        C  0.81046679  0.35969711  0.93411902     0.02400
N782        N  0.80066994  0.37129505  0.83241007    -0.81200
H783        H  0.83960582  0.39670682  0.78804168     0.17900
C784        C  0.79122124  0.37468327  0.95628778    -0.26100
C785        C  0.77025761  0.36295329  0.98054402     0.35900
C786        C  0.76813873  0.33541896  0.98230866    -0.20100
C787        C  0.78859885  0.32050197  0.96304142    -0.25400
C788        C  0.80976814  0.33240194  0.93898609     0.27300
H789        H  0.79199933  0.39570131  0.95327081     0.13100
N790        N  0.75066850  0.37925463  0.00143266    -0.82600
H791        H  0.78744790  0.29946920  0.96437231     0.17900
N792        N  0.83023070  0.31690197  0.91855678    -0.81200
H793        H  0.75951589  0.39148899  0.02715852     0.33500
H794        H  0.74296185  0.39086249  0.97355924     0.38000
H795        H  0.82692338  0.29716614  0.92557194     0.33500
H796        H  0.82973108  0.31915373  0.88051301     0.30200
H797        H  0.79969153  0.37736913  0.79589668     0.33500
H798        H  0.80004808  0.35096477  0.83189348     0.30200
H799        H  0.90543838  0.38443269  0.93231913     0.38100
H800        H  0.89236059  0.41315132  0.94957202     0.33600
C801        C  0.97319558  0.58976652  0.27553333    -0.20200
C802        C  0.94968107  0.57624643  0.28487577     0.36000
C803        C  0.92975275  0.58871061  0.31137963    -0.26200
C804        C  0.93300647  0.61405790  0.32967066     0.02500
C805        C  0.95596942  0.62779463  0.31923208     0.27300
C806        C  0.97565786  0.61563748  0.29229922    -0.25300
N807        N  0.94612448  0.54992475  0.26836965    -0.82700
H808        H  0.91191176  0.57830862  0.31932110     0.13100
C809        C  0.91253781  0.62596342  0.36067795     0.02400
N810        N  0.95927647  0.65403473  0.33650832    -0.81200
H811        H  0.99339825  0.62642421  0.28556179     0.17900
C812        C  0.91802727  0.63205801  0.40978212    -0.26100
C813        C  0.89923821  0.64353945  0.44035428     0.35900
C814        C  0.87416706  0.64868069  0.42148558    -0.20100
C815        C  0.86906416  0.64291313  0.37180350    -0.25400
C816        C  0.88796159  0.63181187  0.34130753     0.27300
H817        H  0.93712278  0.62776278  0.42428788     0.13100
N818        N  0.90555440  0.64960989  0.49038223    -0.82600
H819        H  0.85011980  0.64695633  0.35641752     0.17900
N820        N  0.88235158  0.62655818  0.29063014    -0.81200
H821        H  0.92441885  0.64362984  0.49875738     0.33500
H822        H  0.90549693  0.66986887  0.49378250     0.38000
H823        H  0.86330412  0.63185847  0.28208562     0.33500
H824        H  0.89448690  0.63842787  0.26950686     0.30200
H825        H  0.97742659  0.66140628  0.32624515     0.33500
H826        H  0.94538077  0.66553417  0.31903505     0.30200
H827        H  0.95823868  0.53813782  0.28953024     0.38100
H828        H  0.92718308  0.54358545  0.27543962     0.33600
C829        C  0.02031078  0.52147983  0.10937317    -0.20200
C830        C  0.02701362  0.53234429  0.06352038     0.36000
C831        C  0.01911132  0.51961519  0.02014419    -0.26200
C832        C  0.00421791  0.49661319  0.02167453     0.02500
C833        C  0.99752872  0.48588025  0.06749382     0.27300
C834        C  0.00592795  0.49818844  0.11062350    -0.25300
N835        N  0.04248156  0.55564064  0.06101192    -0.82700
H836        H  0.02441967  0.52774284  0.98490483     0.13100
C837        C  0.99474511  0.48443703  0.97534140     0.02400
N838        N  0.98175869  0.46277147  0.07007919    -0.81200
H839        H  0.00062469  0.48981896  0.14567203     0.17900
C840        C  0.00008459  0.45813882  0.96550780    -0.26100
C841        C  0.99002062  0.44557070  0.92357996     0.35900
C842        C  0.97479168  0.45985788  0.88993919    -0.20100
C843        C  0.96976062  0.48627419  0.89990364    -0.25400
C844        C  0.97929388  0.49857633  0.94220935     0.27300
H845        H  0.01200455  0.44730515  0.99101339     0.13100
N846        N  0.99570429  0.41862313  0.91484738    -0.82600
H847        H  0.95799423  0.49747597  0.87471889     0.17900
N848        N  0.97298710  0.52530492  0.95201969    -0.81200
H849        H  0.00831585  0.41149449  0.94166327     0.33500
H850        H  0.97836252  0.40821178  0.91888497     0.38000
H851        H  0.96160759  0.53301700  0.92384190     0.33500
H852        H  0.96162042  0.52572726  0.98371821     0.30200
H853        H  0.97869816  0.45728543  0.10651078     0.33500
H854        H  0.96354323  0.46727480  0.05551784     0.30200
H855        H  0.03106774  0.57101910  0.07352204     0.38100
H856        H  0.04713007  0.56000271  0.02463371     0.33600
C857        C  0.02305375  0.53077107  0.41017095    -0.20200
C858        C  0.99779241  0.53964186  0.42155914     0.36000
C859        C  0.98403097  0.52805616  0.46009725    -0.26200
C860        C  0.99530068  0.50862214  0.48904527     0.02500
C861        C  0.02156349  0.50180591  0.48099007     0.27300
C862        C  0.03511170  0.51277424  0.44121362    -0.25300
N863        N  0.98578277  0.55961657  0.39246342    -0.82700
H864        H  0.96399849  0.53347142  0.46616335     0.13100
C865        C  0.97894368  0.49456970  0.52554154     0.02400
N866        N  0.03408760  0.48321626  0.51235897    -0.81200
H867        H  0.05452542  0.50610593  0.43277857     0.17900
C868        C  0.97853205  0.46721379  0.52510910    -0.26100
C869        C  0.96512500  0.45306886  0.56118497     0.35900
C870        C  0.95064084  0.46654619  0.59668303    -0.20100
C871        C  0.94915842  0.49374762  0.59471835    -0.25400
C872        C  0.96358805  0.50799186  0.56017602     0.27300
H873        H  0.98945592  0.45685166  0.49744768     0.13100
N874        N  0.96640518  0.42512935  0.56230656    -0.82600
H875        H  0.93848224  0.50400660  0.62290175     0.17900
N876        N  0.96365466  0.53595743  0.56173031    -0.81200
H877        H  0.97718921  0.41820917  0.53264117     0.33500
H878        H  0.97655927  0.41970601  0.59383778     0.38000
H879        H  0.95134012  0.54271475  0.58933504     0.33500
H880        H  0.98241786  0.54201271  0.57106678     0.30200
H881        H  0.05323751  0.48014592  0.50119382     0.33500
H882        H  0.03499723  0.49129391  0.54748285     0.30200
H883        H  0.96712208  0.56371861  0.40526628     0.38100
H884        H  0.99673020  0.57663459  0.39682866     0.33600
C885        C  0.22683127  0.64832604  0.05119595    -0.20200
C886        C  0.20866709  0.66098831  0.08166507     0.36000
C887        C  0.18811998  0.64678292  0.10233844    -0.26200
C888        C  0.18564460  0.61995101  0.09446613     0.02500
C889        C  0.20296865  0.60733187  0.06257635     0.27300
C890        C  0.22326965  0.62166835  0.04096654    -0.25300
N891        N  0.21166039  0.68793207  0.09390185    -0.82700
H892        H  0.17452296  0.65660552  0.12623472     0.13100
C893        C  0.16536829  0.60525155  0.12136051     0.02400
N894        N  0.20029347  0.57990653  0.05341218    -0.81200
H895        H  0.23698624  0.61169785  0.01757355     0.17900
C896        C  0.14429782  0.59470593  0.09560219    -0.26100
C897        C  0.12393074  0.58213834  0.12038837     0.35900
C898        C  0.12453362  0.58007048  0.17217990    -0.20100
C899        C  0.14649801  0.58935816  0.19740297    -0.25400
C900        C  0.16676222  0.60187512  0.17265986     0.27300
H901        H  0.14335792  0.59677088  0.05611408     0.13100
N902        N  0.10257799  0.57187432  0.09270455    -0.82600
H903        H  0.14758313  0.58782297  0.23694540     0.17900
N904        N  0.18860370  0.61087814  0.20053690    -0.81200
H905        H  0.09426296  0.58712091  0.07286629     0.33500
H906        H  0.10984269  0.55834101  0.06767964     0.38000
H907        H  0.18999540  0.63107109  0.19721584     0.33500
H908        H  0.20539170  0.60256167  0.18595620     0.30200
H909        H  0.21457745  0.57357664  0.02902480     0.33500
H910        H  0.20357208  0.57018656  0.08647615     0.30200
H911        H  0.19476458  0.69764925  0.08339755     0.38100
H912        H  0.21348188  0.68944736  0.13197269     0.33600
C913        C  0.26740592  0.34164148  0.54753579    -0.20200
C914        C  0.28789688  0.32859137  0.57206043     0.36000
C915        C  0.30783974  0.34301624  0.59392642    -0.26200
C916        C  0.30784126  0.37027117  0.59304673     0.02500
C917        C  0.28848340  0.38341977  0.56647010     0.27300
C918        C  0.26869390  0.36897914  0.54349140    -0.25300
N919        N  0.28868798  0.30088342  0.57732037    -0.82700
H920        H  0.32303224  0.33284457  0.61354272     0.13100
C921        C  0.32760305  0.38459847  0.62213133     0.02400
N922        N  0.28841549  0.41137598  0.56455689    -0.81200
H923        H  0.25343664  0.37933720  0.52446990     0.17900
C924        C  0.34499003  0.40147485  0.59852964    -0.26100
C925        C  0.36505671  0.41390443  0.62466178     0.35900
C926        C  0.36772185  0.40930462  0.67554815    -0.20100
C927        C  0.34953365  0.39327053  0.69935461    -0.25400
C928        C  0.32956670  0.38083892  0.67319540     0.27300
H929        H  0.34329223  0.40439666  0.55933882     0.13100
N930        N  0.38297687  0.43074999  0.59953935    -0.82600
H931        H  0.35152538  0.38947967  0.73823037     0.17900
N932        N  0.31154309  0.36398296  0.69807661    -0.81200
H933        H  0.37848530  0.43176550  0.56221053     0.33500
H934        H  0.38059533  0.44948982  0.61366615     0.38000
H935        H  0.31587186  0.36297213  0.73545528     0.33500
H936        H  0.29312298  0.37231403  0.69517534     0.30200
H937        H  0.27286570  0.41804014  0.54340295     0.33500
H938        H  0.28537400  0.41822309  0.60014835     0.30200
H939        H  0.27261945  0.29470692  0.59757454     0.38100
H940        H  0.28829586  0.29241041  0.54248704     0.33600
C941        C  0.28090012  0.22429349  0.14442645    -0.20200
C942        C  0.29389791  0.24292774  0.17357868     0.36000
C943        C  0.28194642  0.25203810  0.21672411    -0.26200
C944        C  0.25732842  0.24292599  0.23117156     0.02500
C945        C  0.24472375  0.22380916  0.20276107     0.27300
C946        C  0.25652839  0.21485721  0.15971351    -0.25300
N947        N  0.31870757  0.25306929  0.15874072    -0.82700
H948        H  0.29160741  0.26672068  0.23872240     0.13100
C949        C  0.24498969  0.25329904  0.27635554     0.02400
N950        N  0.22001419  0.21347657  0.21788886    -0.81200
H951        H  0.24654925  0.20032796  0.13783399     0.17900
C952        C  0.22031964  0.26485059  0.27374130    -0.26100
C953        C  0.20784495  0.27431532  0.31605392     0.35900
C954        C  0.22042392  0.27227720  0.36188091    -0.20100
C955        C  0.24521957  0.26092218  0.36410413    -0.25400
C956        C  0.25745853  0.25118306  0.32208522     0.27300
H957        H  0.21082885  0.26655392  0.23844418     0.13100
N958        N  0.18269267  0.28615862  0.31247709    -0.82600
H959        H  0.25491150  0.25897090  0.39915496     0.17900
N960        N  0.28228223  0.23864404  0.32581744    -0.81200
H961        H  0.17608168  0.28586799  0.27624349     0.33500
H962        H  0.18476588  0.30573556  0.32219502     0.38000
H963        H  0.28888360  0.23874330  0.36205490     0.33500
H964        H  0.27970337  0.21913226  0.31604520     0.30200
H965        H  0.21324292  0.19967524  0.19274106     0.33500
H966        H  0.22283944  0.20365591  0.25100236     0.30200
H967        H  0.31593762  0.26348048  0.12625317     0.38100
H968        H  0.32571538  0.26637689  0.18458972     0.33600
C969        C  0.21138758  0.27344923  0.66103579    -0.20200
C970        C  0.22621907  0.28558758  0.69818386     0.36000
C971        C  0.23545826  0.27045924  0.73766278    -0.26200
C972        C  0.23085942  0.24343913  0.73983422     0.02500
C973        C  0.21492355  0.23178045  0.70388937     0.27300
C974        C  0.20500750  0.24689865  0.66602003    -0.25300
N975        N  0.23279071  0.31273196  0.69487902    -0.82700
H976        H  0.24739484  0.27950196  0.76565257     0.13100
C977        C  0.24445524  0.22747101  0.77728057     0.02400
N978        N  0.20995383  0.20432310  0.70255751    -0.81200
H979        H  0.19331257  0.23722100  0.63844164     0.17900
C980        C  0.23001803  0.21220631  0.81013351    -0.26100
C981        C  0.24232511  0.19717381  0.84623767     0.35900
C982        C  0.26952625  0.19843260  0.85112630    -0.20100
C983        C  0.28403767  0.21334024  0.81790062    -0.25400
C984        C  0.27182409  0.22747870  0.78038687     0.27300
H985        H  0.20903095  0.21275742  0.80887200     0.13100
N986        N  0.22719157  0.18223435  0.88038294    -0.82600
H987        H  0.30488518  0.21481331  0.82262367     0.17900
N988        N  0.28702695  0.24244818  0.74631270    -0.81200
H989        H  0.20738204  0.18398743  0.87273284     0.33500
H990        H  0.23182601  0.16265068  0.87519738     0.38000
H991        H  0.30682028  0.24064483  0.75402792     0.33500
H992        H  0.28410363  0.23448526  0.71147826     0.30200
H993        H  0.19898992  0.19898429  0.73306832     0.33500
H994        H  0.22765001  0.19445234  0.70319177     0.30200
H995        H  0.24534660  0.31507660  0.66517628     0.38100
H996        H  0.24317431  0.31865651  0.72594578     0.33600
C997        C  0.11153840  0.33142212  0.57823236    -0.20200
C998        C  0.09336172  0.34826539  0.55614630     0.36000
C999        C  0.07355968  0.35913044  0.58495493    -0.26200
C1000       C  0.07209681  0.35428399  0.63553381     0.02500
C1001       C  0.08977344  0.33686839  0.65727274     0.27300
C1002       C  0.10905980  0.32540257  0.62827273    -0.25300
N1003       N  0.09573950  0.35531957  0.50535461    -0.82700
H1004       H  0.05967156  0.37218837  0.56823786     0.13100
C1005       C  0.05226708  0.36800238  0.66529584     0.02400
N1006       N  0.08865678  0.33159708  0.70898387    -0.81200
H1007       H  0.12297157  0.31249260  0.64535296     0.17900
C1008       C  0.03487574  0.35346600  0.69378098    -0.26100
C1009       C  0.01522638  0.36563978  0.72064863     0.35900
C1010       C  0.01236564  0.39297168  0.71838657    -0.20100
C1011       C  0.03041655  0.40761713  0.69134233    -0.25400
C1012       C  0.05046238  0.39542289  0.66507142     0.27300
H1013       H  0.03625828  0.33243778  0.69455514     0.13100
N1014       N  0.99819383  0.35006928  0.75011921    -0.82600
H1015       H  0.02844548  0.42856702  0.68945787     0.17900
N1016       N  0.06889481  0.41072837  0.63787924    -0.81200
H1017       H  0.00946957  0.33987706  0.77549723     0.33500
H1018       H  0.98901202  0.33650417  0.72733126     0.38000
H1019       H  0.06478768  0.43055157  0.64119890     0.33500
H1020       H  0.08714042  0.40787472  0.65374905     0.30200
H1021       H  0.10299142  0.31829039  0.71910397     0.33500
H1022       H  0.09287809  0.34893954  0.72741060     0.30200
H1023       H  0.11277412  0.36626415  0.50159428     0.38100
H1024       H  0.08053577  0.36751612  0.49480965     0.33600
C1025       C  0.08900681  0.47444128  0.29583872    -0.20200
C1026       C  0.11465485  0.46886707  0.28062054     0.36000
C1027       C  0.12888050  0.44936763  0.30482771    -0.26200
C1028       C  0.11808108  0.43535827  0.34394491     0.02500
C1029       C  0.09209052  0.43992823  0.35751665     0.27300
C1030       C  0.07778698  0.45932797  0.33322562    -0.25300
N1031       N  0.12636242  0.48342948  0.24141151    -0.82700
H1032       H  0.14873233  0.44551844  0.29404312     0.13100
C1033       C  0.13417729  0.41603515  0.37073904     0.02400
N1034       N  0.08054443  0.42519881  0.39667382    -0.81200
H1035       H  0.05825571  0.46359899  0.34541982     0.17900
C1036       C  0.14020518  0.42020189  0.42030908    -0.26100
C1037       C  0.15387051  0.40150581  0.44784370     0.35900
C1038       C  0.16122528  0.37779563  0.42544362    -0.20100
C1039       C  0.15646249  0.37454181  0.37488402    -0.25400
C1040       C  0.14295722  0.39328825  0.34749856     0.27300
H1041       H  0.13388282  0.43802968  0.43770993     0.13100
N1042       N  0.15963861  0.40633658  0.49857919    -0.82600
H1043       H  0.16224859  0.35671947  0.35684342     0.17900
N1044       N  0.13734515  0.38891455  0.29652794    -0.81200
H1045       H  0.15233450  0.42436886  0.50951264     0.33500
H1046       H  0.17982736  0.40757318  0.50194083     0.38000
H1047       H  0.14521944  0.37126443  0.28482889     0.33500
H1048       H  0.11720726  0.38718188  0.29287247     0.30200
H1049       H  0.06140042  0.43108319  0.40258108     0.33500
H1050       H  0.07970627  0.40575303  0.38552201     0.30200
H1051       H  0.11581315  0.47943906  0.20951923     0.38100
H1052       H  0.14533353  0.47712218  0.23507750     0.33600
C1053       C  0.72744952  0.14333843  0.55609905    -0.20200
C1054       C  0.70878580  0.15642299  0.58510069     0.36000
C1055       C  0.68887022  0.14203984  0.60770120    -0.26200
C1056       C  0.68700724  0.11502088  0.60183792     0.02500
C1057       C  0.70465567  0.10209025  0.57111080     0.27300
C1058       C  0.72459903  0.11636977  0.54838897    -0.25300
N1059       N  0.71064151  0.18398903  0.59341156    -0.82700
H1060       H  0.67490032  0.15187285  0.63079839     0.13100
C1061       C  0.66672237  0.10056313  0.62910683     0.02400
N1062       N  0.70274984  0.07440116  0.56443066    -0.81200
H1063       H  0.73863336  0.10613046  0.52611614     0.17900
C1064       C  0.64716677  0.08747643  0.60319260    -0.26100
C1065       C  0.62647221  0.07537036  0.62785529     0.35900
C1066       C  0.62521232  0.07673311  0.67965198    -0.20100
C1067       C  0.64568836  0.08858278  0.70551996    -0.25400
C1068       C  0.66643549  0.10049295  0.68074251     0.27300
H1069       H  0.64772876  0.08731709  0.56350148     0.13100
N1070       N  0.60649824  0.06223439  0.60039895    -0.82600
H1071       H  0.64497873  0.08962146  0.74514576     0.17900
N1072       N  0.68697638  0.11301655  0.70768305    -0.81200
H1073       H  0.61018565  0.06337053  0.56279334     0.33500
H1074       H  0.60719240  0.04251894  0.60971566     0.38000
H1075       H  0.68377562  0.11144593  0.74539449     0.33500
H1076       H  0.70412868  0.10296061  0.70028459     0.30200
H1077       H  0.71722350  0.06784088  0.54068121     0.33500
H1078       H  0.70624264  0.06563199  0.59835748     0.30200
H1079       H  0.70684531  0.19322079  0.56005196     0.38100
H1080       H  0.69624835  0.19017234  0.61770655     0.33600
C1081       C  0.76895289  0.21164376  0.36707725    -0.20200
C1082       C  0.77821086  0.20508656  0.31991412     0.36000
C1083       C  0.76478696  0.21398825  0.27795055    -0.26200
C1084       C  0.74239496  0.22945102  0.28188887     0.02500
C1085       C  0.73277697  0.23538376  0.32887743     0.27300
C1086       C  0.74593421  0.22623302  0.37074398    -0.25300
N1087       N  0.80068463  0.18885890  0.31461640    -0.82700
H1088       H  0.77206784  0.20922972  0.24182751     0.13100
C1089       C  0.73044449  0.24097320  0.23678392     0.02400
N1090       N  0.71005483  0.25128979  0.33394119    -0.81200
H1091       H  0.73855134  0.23125484  0.40666422     0.17900
C1092       C  0.70468760  0.23500687  0.22339943    -0.26100
C1093       C  0.69330453  0.24554153  0.18048371     0.35900
C1094       C  0.70793923  0.26262682  0.15051196    -0.20100
C1095       C  0.73345559  0.26896181  0.16500020    -0.25400
C1096       C  0.74471708  0.25852463  0.20761544     0.27300
H1097       H  0.69362220  0.22167938  0.24603829     0.13100
N1098       N  0.66729996  0.23838691  0.16678575    -0.82600
H1099       H  0.74484299  0.28220167  0.14274175     0.17900
N1100       N  0.77066228  0.26581835  0.22162043    -0.81200
H1101       H  0.65915708  0.22596939  0.19298637     0.33500
H1102       H  0.66838968  0.22772192  0.13423066     0.38000
H1103       H  0.77863979  0.27881108  0.19624758     0.33500
H1104       H  0.76948357  0.27582096  0.25490537     0.30200
H1105       H  0.70540641  0.25382548  0.37090945     0.33500
H1106       H  0.71455011  0.26973726  0.32012998     0.30200
H1107       H  0.81685206  0.19974088  0.32555906     0.38100
H1108       H  0.80368856  0.18423769  0.27774881     0.33600
C1109       C  0.72125305  0.27899780  0.85483089    -0.20200
C1110       C  0.70872030  0.26009171  0.82574357     0.36000
C1111       C  0.72301121  0.24650831  0.79025643    -0.26200
C1112       C  0.74988394  0.25052124  0.78484677     0.02500
C1113       C  0.76222789  0.26999265  0.81348372     0.27300
C1114       C  0.74758294  0.28444847  0.84721229    -0.25300
N1115       N  0.68170146  0.25429383  0.83344800    -0.82700
H1116       H  0.71318063  0.23240321  0.76723018     0.13100
C1117       C  0.76438738  0.23500351  0.74759191     0.02400
N1118       N  0.78976137  0.27426199  0.80991036    -0.81200
H1119       H  0.75725714  0.29852300  0.87060854     0.17900
C1120       C  0.78088393  0.24799812  0.71494637    -0.26100
C1121       C  0.79265613  0.23491773  0.67610408     0.35900
C1122       C  0.78670138  0.20847556  0.66705351    -0.20100
C1123       C  0.77172818  0.19483292  0.70156088    -0.25400
C1124       C  0.76090557  0.20775339  0.74235272     0.27300
H1125       H  0.78393766  0.26878630  0.71812563     0.13100
N1126       N  0.81007711  0.24894843  0.64483743    -0.82600
H1127       H  0.76741698  0.17443651  0.69553237     0.17900
N1128       N  0.74596452  0.19345569  0.77780674    -0.81200
H1129       H  0.82548705  0.25579795  0.66622917     0.33500
H1130       H  0.80016673  0.26500392  0.63076880     0.38000
H1131       H  0.74521850  0.17372107  0.76861071     0.33500
H1132       H  0.75572069  0.19474259  0.81133817     0.30200
H1133       H  0.79569566  0.28925831  0.83332565     0.33500
H1134       H  0.79897416  0.25735405  0.82198823     0.30200
H1135       H  0.67116554  0.27097432  0.82455737     0.38100
H1136       H  0.67545097  0.23961895  0.80960457     0.33600
C1137       C  0.84375164  0.25733557  0.52927958    -0.20200
C1138       C  0.87045446  0.25676814  0.54209863     0.36000
C1139       C  0.88105989  0.27625091  0.57216740    -0.26200
C1140       C  0.86581507  0.29663371  0.58975934     0.02500
C1141       C  0.83955950  0.29821350  0.57535129     0.27300
C1142       C  0.82878386  0.27854663  0.54533490    -0.25300
N1143       N  0.88702642  0.23636147  0.52510471    -0.82700
H1144       H  0.90144328  0.27543450  0.58191977     0.13100
C1145       C  0.87834838  0.31720062  0.61993548     0.02400
N1146       N  0.82405341  0.31993021  0.59064001    -0.81200
H1147       H  0.80840314  0.27942833  0.53574358     0.17900
C1148       C  0.89219060  0.33691060  0.59600693    -0.26100
C1149       C  0.90434154  0.35691834  0.62247468     0.35900
C1150       C  0.90250845  0.35757888  0.67414119    -0.20100
C1151       C  0.88975892  0.33704890  0.69834538    -0.25400
C1152       C  0.87769378  0.31677666  0.67169514     0.27300
H1153       H  0.89347290  0.33682707  0.55636410     0.13100
N1154       N  0.91871578  0.37649463  0.59662916    -0.82600
H1155       H  0.88840552  0.33728715  0.73795901     0.17900
N1156       N  0.86505442  0.29572014  0.69693621    -0.81200
H1157       H  0.90618087  0.38555029  0.57184297     0.33500
H1158       H  0.93333539  0.36731025  0.57658727     0.38000
H1159       H  0.86709143  0.29787815  0.73482132     0.33500
H1160       H  0.84519510  0.29692037  0.68959227     0.30200
H1161       H  0.80533023  0.31846111  0.57612812     0.33500
H1162       H  0.82206063  0.31901076  0.62870144     0.30200
H1163       H  0.89492547  0.22697644  0.55562461     0.38100
H1164       H  0.90225426  0.24480246  0.50531763     0.33600
C1165       C  0.76309198  0.83924359  0.04767063    -0.20200
C1166       C  0.78302206  0.82560457  0.07246016     0.36000
C1167       C  0.80338935  0.83963091  0.09456989    -0.26200
C1168       C  0.80454052  0.86683530  0.09197576     0.02500
C1169       C  0.78580149  0.88036532  0.06459776     0.27300
C1170       C  0.76537433  0.86644808  0.04250644    -0.25300
N1171       N  0.78207434  0.79775559  0.07699902    -0.82700
H1172       H  0.81821627  0.82935941  0.11496398     0.13100
C1173       C  0.82495630  0.88082650  0.11991676     0.02400
N1174       N  0.78706592  0.90824331  0.06089526    -0.81200
H1175       H  0.75048201  0.87713403  0.02310845     0.17900
C1176       C  0.84437722  0.89447042  0.09478157    -0.26100
C1177       C  0.86508762  0.90625745  0.12015855     0.35900
C1178       C  0.86641209  0.90416376  0.17193641    -0.20100
C1179       C  0.84606808  0.89168736  0.19702154    -0.25400
C1180       C  0.82540139  0.87996426  0.17152026     0.27300
H1181       H  0.84367004  0.89536590  0.05512885     0.13100
N1182       N  0.88493687  0.91993534  0.09341650    -0.82600
H1183       H  0.84678729  0.89010387  0.23658009     0.17900
N1184       N  0.80505834  0.86672758  0.19768561    -0.81200
H1185       H  0.88122769  0.91930680  0.05575459     0.33500
H1186       H  0.88408708  0.93950180  0.10372245     0.38000
H1187       H  0.80835071  0.86760848  0.23546212     0.33500
H1188       H  0.78778412  0.87673956  0.19106907     0.30200
H1189       H  0.77181856  0.91524906  0.03936700     0.33500
H1190       H  0.78440521  0.91586873  0.09603984     0.30200
H1191       H  0.78455430  0.78997237  0.04192328     0.38100
H1192       H  0.79760347  0.79101048  0.09809314     0.33600
C1193       C  0.91266525  0.85533920  0.32848938    -0.20200
C1194       C  0.89574260  0.83634721  0.30822488     0.36000
C1195       C  0.88339410  0.81826421  0.33904450    -0.26200
C1196       C  0.88735593  0.81853700  0.38997654     0.02500
C1197       C  0.90491825  0.83669060  0.41021989     0.27300
C1198       C  0.91744414  0.85471056  0.37935285    -0.25300
N1199       N  0.88981099  0.83551077  0.25698582    -0.82700
H1200       H  0.87021253  0.80409342  0.32316399     0.13100
C1201       C  0.87313390  0.79956848  0.42151755     0.02400
N1202       N  0.90937274  0.83726996  0.46223308    -0.81200
H1203       H  0.93033602  0.86905672  0.39550525     0.17900
C1204       C  0.88720830  0.78134879  0.44879444    -0.26100
C1205       C  0.87453889  0.76196876  0.47611100     0.35900
C1206       C  0.84708715  0.76048946  0.47630819    -0.20100
C1207       C  0.83298223  0.77962666  0.45106479    -0.25400
C1208       C  0.84573799  0.79917762  0.42377438     0.27300
H1209       H  0.90823768  0.78174946  0.44790170     0.13100
N1210       N  0.88974138  0.74367796  0.50330389    -0.82600
H1211       H  0.81196954  0.77876384  0.45103385     0.17900
N1212       N  0.83101313  0.81847800  0.39786937    -0.81200
H1213       H  0.90132403  0.75404607  0.52806909     0.33500
H1214       H  0.90199309  0.73404653  0.47882523     0.38000
H1215       H  0.81112731  0.81545405  0.40300194     0.33500
H1216       H  0.83541415  0.83656121  0.41344222     0.30200
H1217       H  0.92285825  0.85175148  0.47128505     0.33500
H1218       H  0.89191338  0.84241465  0.47908230     0.30200
H1219       H  0.88170344  0.85330703  0.24671852     0.38100
H1220       H  0.90703129  0.83267637  0.23758948     0.33600
C1221       C  0.83121326  0.10618162  0.42499482    -0.20200
C1222       C  0.82769655  0.10465261  0.37354591     0.36000
C1223       C  0.84063923  0.08525062  0.34655620    -0.26200
C1224       C  0.85697704  0.06726351  0.36968382     0.02500
C1225       C  0.85943232  0.06787083  0.42117913     0.27300
C1226       C  0.84654210  0.08724313  0.44824897    -0.25300
N1227       N  0.81141564  0.12308627  0.34869453    -0.82700
H1228       H  0.83851339  0.08454043  0.30707470     0.13100
C1229       C  0.87188769  0.04818856  0.33971129     0.02400
N1230       N  0.87540098  0.04903244  0.44566926    -0.81200
H1231       H  0.84944041  0.08819678  0.48753371     0.17900
C1232       C  0.89913132  0.04887479  0.34063060    -0.26100
C1233       C  0.91404260  0.03001536  0.31598845     0.35900
C1234       C  0.90138953  0.00967046  0.29019481    -0.20100
C1235       C  0.87405502  0.01009714  0.28691902    -0.25400
C1236       C  0.85923509  0.02900101  0.31148689     0.27300
H1237       H  0.90880081  0.06398738  0.36157032     0.13100
N1238       N  0.94188306  0.03093321  0.31899148    -0.82600
H1239       H  0.86403381  0.99483623  0.26699231     0.17900
N1240       N  0.83135607  0.02819948  0.30936743    -0.81200
H1241       H  0.94798932  0.04649875  0.34087168     0.33500
H1242       H  0.94889328  0.03466957  0.28373690     0.38000
H1243       H  0.82503281  0.01291933  0.28699233     0.33500
H1244       H  0.82455370  0.02417628  0.34465461     0.30200
H1245       H  0.87541182  0.05223706  0.48350106     0.33500
H1246       H  0.86698957  0.03072639  0.44003500     0.30200
H1247       H  0.79243827  0.12023205  0.36118647     0.38100
H1248       H  0.81116360  0.11949900  0.31098777     0.33600
C1249       C  0.07950610  0.63049005  0.32730022    -0.20200
C1250       C  0.09231832  0.65129876  0.30330646     0.36000
C1251       C  0.10385651  0.67121696  0.33147387    -0.26200
C1252       C  0.10301771  0.67070181  0.38286868     0.02500
C1253       C  0.08908748  0.65079291  0.40671710     0.27300
C1254       C  0.07738423  0.63104160  0.37875535    -0.25300
N1255       N  0.09445381  0.65177358  0.25079871    -0.82700
H1256       H  0.11424595  0.68686192  0.31337508     0.13100
C1257       C  0.11746113  0.69065724  0.41142354     0.02400
N1258       N  0.08755261  0.65029355  0.45932649    -0.81200
H1259       H  0.06731103  0.61542015  0.39754180     0.17900
C1260       C  0.10375259  0.70775294  0.44169408    -0.26100
C1261       C  0.11671554  0.72703817  0.46871428     0.35900
C1262       C  0.14402713  0.72937559  0.46573896    -0.20100
C1263       C  0.15782403  0.71170282  0.43653199    -0.25400
C1264       C  0.14479431  0.69236836  0.40928513     0.27300
H1265       H  0.08279072  0.70631877  0.44390025     0.13100
N1266       N  0.10200388  0.74415113  0.49931089    -0.82600
H1267       H  0.17873082  0.71349608  0.43370523     0.17900
N1268       N  0.15914471  0.67454256  0.37922872    -0.81200
H1269       H  0.09190887  0.73283750  0.52485243     0.33500
H1270       H  0.08834534  0.75361341  0.47735711     0.38000
H1271       H  0.17903420  0.67851192  0.38132937     0.33500
H1272       H  0.15641971  0.65588664  0.39364691     0.30200
H1273       H  0.07646611  0.63441258  0.47117095     0.33500
H1274       H  0.10632002  0.64750179  0.47287897     0.30200
H1275       H  0.10670989  0.63656068  0.24051612     0.38100
H1276       H  0.10350714  0.66892716  0.23915240     0.33600
C1277       C  0.20640619  0.76823527  0.64790291    -0.20200
C1278       C  0.22797744  0.78069682  0.66988090     0.36000
C1279       C  0.23863078  0.77052322  0.71316075    -0.26200
C1280       C  0.22823702  0.74814473  0.73507889     0.02500
C1281       C  0.20575410  0.73651873  0.71475610     0.27300
C1282       C  0.19489623  0.74685269  0.67146228    -0.25300
N1283       N  0.23920121  0.80347658  0.64763679    -0.82700
H1284       H  0.25543951  0.77983252  0.72954909     0.13100
C1285       C  0.24152875  0.73704732  0.77878297     0.02400
N1286       N  0.19463048  0.71376464  0.73715298    -0.81200
H1287       H  0.17834612  0.73732764  0.65460637     0.17900
C1288       C  0.22824230  0.73550118  0.82335635    -0.26100
C1289       C  0.24054910  0.72637358  0.86587867     0.35900
C1290       C  0.26687830  0.71833053  0.86419368    -0.20100
C1291       C  0.28008534  0.71976150  0.81924983    -0.25400
C1292       C  0.26767047  0.72892522  0.77657589     0.27300
H1293       H  0.20827761  0.74197337  0.82544806     0.13100
N1294       N  0.22626352  0.72603643  0.91090317    -0.82600
H1295       H  0.30015370  0.71365815  0.81729917     0.17900
N1296       N  0.28148087  0.73000148  0.73088340    -0.81200
H1297       H  0.20983036  0.71431361  0.90601093     0.33500
H1298       H  0.22004356  0.74497372  0.91827442     0.38000
H1299       H  0.30052088  0.72345982  0.73535984     0.33500
H1300       H  0.27238864  0.71705875  0.70672637     0.30200
H1301       H  0.17822891  0.70758430  0.71771172     0.33500
H1302       H  0.20825411  0.69881127  0.73457804     0.30200
H1303       H  0.22522004  0.81815893  0.64850767     0.38100
H1304       H  0.25500817  0.81021258  0.66815060     0.33600
C1305       C  0.22427398  0.78497626  0.35119202    -0.20200
C1306       C  0.21039595  0.76915884  0.31826957     0.36000
C1307       C  0.22364169  0.75595507  0.28104429    -0.26200
C1308       C  0.25084204  0.75723472  0.27762476     0.02500
C1309       C  0.26472560  0.77371724  0.31002865     0.27300
C1310       C  0.25114663  0.78792921  0.34570789    -0.25300
N1311       N  0.18289320  0.76602256  0.32341766    -0.82700
H1312       H  0.21266844  0.74405257  0.25555121     0.13100
C1313       C  0.26434555  0.74149395  0.23963891     0.02400
N1314       N  0.29259189  0.77502847  0.30813872    -0.81200
H1315       H  0.26179007  0.79974007  0.37182947     0.17900
C1316       C  0.28210179  0.75380059  0.20840070    -0.26100
C1317       C  0.29370661  0.74033156  0.16979741     0.35900
C1318       C  0.28670181  0.71415112  0.16040888    -0.20100
C1319       C  0.27012615  0.70128630  0.19325932    -0.25400
C1320       C  0.25907002  0.71464264  0.23317383     0.27300
H1321       H  0.28642414  0.77430940  0.21288312     0.13100
N1322       N  0.31206841  0.75363965  0.13917976    -0.82600
H1323       H  0.26469267  0.68123036  0.18637052     0.17900
N1324       N  0.24208929  0.70122183  0.26651686    -0.81200
H1325       H  0.30294025  0.76986602  0.12390433     0.33500
H1326       H  0.32734095  0.76026156  0.16120991     0.38000
H1327       H  0.24008658  0.68168265  0.25647458     0.33500
H1328       H  0.25092112  0.70144064  0.30101600     0.30200
H1329       H  0.29975775  0.78794889  0.33453058     0.33500
H1330       H  0.29970366  0.75663105  0.31723766     0.30200
H1331       H  0.17892961  0.74623561  0.32844105     0.38100
H1332       H  0.17413777  0.77187433  0.29066829     0.33600
C1333       C  0.02034135  0.89749154  0.26565458    -0.20200
C1334       C  0.03861647  0.91348525  0.29022819     0.36000
C1335       C  0.05852605  0.90189599  0.31786196    -0.26200
C1336       C  0.06104681  0.87475729  0.32061191     0.02500
C1337       C  0.04381875  0.85882468  0.29382052     0.27300
C1338       C  0.02355675  0.87031479  0.26704803    -0.25300
N1339       N  0.03624783  0.94133305  0.28921069    -0.82700
H1340       H  0.07186071  0.91410726  0.33835176     0.13100
C1341       C  0.08160130  0.86336725  0.35229997     0.02400
N1342       N  0.04681314  0.83102995  0.29437809    -0.81200
H1343       H  0.00981747  0.85789045  0.24801948     0.17900
C1344       C  0.07475058  0.84597487  0.38996374    -0.26100
C1345       C  0.09369716  0.83514265  0.42108436     0.35900
C1346       C  0.11999001  0.84218136  0.41480409    -0.20100
C1347       C  0.12670371  0.85960390  0.37704857    -0.25400
C1348       C  0.10788691  0.87012453  0.34568620     0.27300
H1349       H  0.05450942  0.84087380  0.39509081     0.13100
N1350       N  0.08637483  0.81675795  0.45828639    -0.82600
H1351       H  0.14683174  0.86515475  0.37195082     0.17900
N1352       N  0.11538755  0.88752099  0.30688729    -0.81200
H1353       H  0.06629482  0.81372952  0.45806374     0.33500
H1354       H  0.09482515  0.79895494  0.44917208     0.38000
H1355       H  0.13544520  0.89068151  0.30720357     0.33500
H1356       H  0.11102436  0.87836977  0.27364723     0.30200
H1357       H  0.03246363  0.82208376  0.27305205     0.33500
H1358       H  0.06459620  0.82676153  0.27785712     0.30200
H1359       H  0.04025787  0.94741987  0.25345007     0.38100
H1360       H  0.05029807  0.95006203  0.31154865     0.33600
C1361       C  0.09174761  0.12721373  0.67023367    -0.20200
C1362       C  0.08955677  0.12739800  0.61845934     0.36000
C1363       C  0.10172218  0.14719317  0.59140696    -0.26200
C1364       C  0.11566526  0.16708138  0.61474165     0.02500
C1365       C  0.11614847  0.16805939  0.66636209     0.27300
C1366       C  0.10432666  0.14807606  0.69373277    -0.25300
N1367       N  0.07522695  0.10730548  0.59344542    -0.82700
H1368       H  0.10071789  0.14689509  0.55173931     0.13100
C1369       C  0.12905852  0.18688285  0.58405106     0.02400
N1370       N  0.12895335  0.18912233  0.69095847    -0.81200
H1371       H  0.10590920  0.14837196  0.73332347     0.17900
C1372       C  0.11387314  0.20205441  0.55246342    -0.26100
C1373       C  0.12506052  0.22130795  0.52261781     0.35900
C1374       C  0.15212421  0.22581075  0.52476851    -0.20100
C1375       C  0.16748836  0.20981793  0.55466800    -0.25400
C1376       C  0.15641536  0.19025878  0.58396384     0.27300
H1377       H  0.09304460  0.19902724  0.55155980     0.13100
N1378       N  0.10896992  0.23649891  0.49053325    -0.82600
H1379       H  0.18826860  0.21303108  0.55655152     0.17900
N1380       N  0.17357085  0.17440339  0.61283804    -0.81200
H1381       H  0.08951151  0.23088194  0.49362507     0.33500
H1382       H  0.11457442  0.23235824  0.45456719     0.38000
H1383       H  0.18618578  0.16500853  0.58870998     0.33500
H1384       H  0.16360889  0.15962315  0.63109697     0.30200
H1385       H  0.11538787  0.19827611  0.71352791     0.33500
H1386       H  0.14345232  0.18133848  0.71335315     0.30200
H1387       H  0.05580190  0.10886249  0.60407659     0.38100
H1388       H  0.07568544  0.11019564  0.55553159     0.33600
C1389       C  0.22484694  0.14545651  0.98790729    -0.20200
C1390       C  0.20128071  0.15796620  0.97621152     0.36000
C1391       C  0.18126026  0.14367424  0.95329047    -0.26200
C1392       C  0.18434370  0.11719284  0.94222283     0.02500
C1393       C  0.20675739  0.10415721  0.95804933     0.27300
C1394       C  0.22667701  0.11832575  0.98102455    -0.25300
N1395       N  0.19820913  0.18528835  0.98551569    -0.82700
H1396       H  0.16371224  0.15348615  0.94176985     0.13100
C1397       C  0.16504769  0.10385432  0.91051041     0.02400
N1398       N  0.20958257  0.07676729  0.94887505    -0.81200
H1399       H  0.24443789  0.10829549  0.99048317     0.17900
C1400       C  0.17245182  0.09597432  0.86332879    -0.26100
C1401       C  0.15442253  0.08488001  0.83071853     0.35900
C1402       C  0.12840571  0.08124300  0.84558043    -0.20100
C1403       C  0.12138524  0.08837672  0.89372784    -0.25400
C1404       C  0.13937694  0.09972953  0.92613003     0.27300
H1405       H  0.19225394  0.09912055  0.85125283     0.13100
N1406       N  0.16261220  0.07790286  0.78236584    -0.82600
H1407       H  0.10156463  0.08573109  0.90599041     0.17900
N1408       N  0.13164427  0.10737295  0.97461824    -0.81200
H1409       H  0.17772174  0.06449204  0.78550173     0.33500
H1410       H  0.16994650  0.09459125  0.76529485     0.38000
H1411       H  0.11198954  0.10325175  0.98032403     0.33500
H1412       H  0.14202464  0.09597660  0.99952508     0.30200
H1413       H  0.22738422  0.07010808  0.96222696     0.33500
H1414       H  0.19515379  0.06707360  0.96876018     0.30200
H1415       H  0.19895833  0.18797383  0.02346398     0.38100
H1416       H  0.17989721  0.19154588  0.97406907     0.33600
C1417       C  0.02336490  0.02589872  0.88947937    -0.20200
C1418       C  0.00218279  0.03625157  0.91558640     0.36000
C1419       C  0.99337752  0.02351563  0.95825965    -0.26200
C1420       C  0.00535693  0.00071220  0.97557805     0.02500
C1421       C  0.02698338  0.99081722  0.95009285     0.27300
C1422       C  0.03551569  0.00330702  0.90714829    -0.25300
N1423       N  0.98912576  0.05904730  0.89785796    -0.82700
H1424       H  0.97666789  0.03107851  0.97756027     0.13100
C1425       C  0.99498724  0.98747315  0.02032307     0.02400
N1426       N  0.04028475  0.96820305  0.96803952    -0.81200
H1427       H  0.05184671  0.99534223  0.88723356     0.17900
C1428       C  0.98799947  0.96096535  0.01874506    -0.26100
C1429       C  0.97751190  0.94813946  0.06010485     0.35900
C1430       C  0.97358732  0.96222305  0.10397730    -0.20100
C1431       C  0.98084232  0.98871212  0.10524331    -0.25400
C1432       C  0.99173118  0.00129682  0.06443328     0.27300
H1433       H  0.99043513  0.95030669  0.98482685     0.13100
N1434       N  0.97077327  0.92102543  0.05741747    -0.82600
H1435       H  0.97856949  0.99972226  0.13879189     0.17900
N1436       N  0.99989668  0.02802955  0.06788542    -0.81200
H1437       H  0.97540470  0.91346288  0.02296251     0.33500
H1438       H  0.95061733  0.91955420  0.06094681     0.38000
H1439       H  0.99611439  0.03548278  0.10278877     0.33500
H1440       H  0.02004299  0.02853794  0.06336195     0.30200
H1441       H  0.05569681  0.96333922  0.94493126     0.33500
H1442       H  0.04844576  0.97302712  0.00195076     0.30200
H1443       H  0.98050973  0.05428536  0.86430577     0.38100
H1444       H  0.97404492  0.06422565  0.92148206     0.33600
C1445       C  0.04260209  0.02316987  0.59148496    -0.20200
C1446       C  0.05210100  0.00011194  0.56998931     0.36000
C1447       C  0.03823050  0.98873083  0.53091726    -0.26200
C1448       C  0.01502903  0.99979124  0.51382545     0.02500
C1449       C  0.00664303  0.02367944  0.53324790     0.27300
C1450       C  0.02048432  0.03512403  0.57152114    -0.25300
N1451       N  0.07489498  0.98770830  0.58921057    -0.82700
H1452       H  0.04501532  0.97075006  0.51473703     0.13100
C1453       C  0.00062091  0.98706946  0.47355369     0.02400
N1454       N  0.98408473  0.03667087  0.51488569    -0.81200
H1455       H  0.01310727  0.05292160  0.58756398     0.17900
C1456       C  0.97639523  0.97517506  0.48231836    -0.26100
C1457       C  0.96216516  0.96352477  0.44383389     0.35900
C1458       C  0.97264012  0.96375477  0.39618375    -0.20100
C1459       C  0.99691741  0.97580011  0.38808948    -0.25400
C1460       C  0.01087541  0.98748690  0.42604005     0.27300
H1461       H  0.96866632  0.97499598  0.51922059     0.13100
N1462       N  0.93748145  0.95139274  0.45303389    -0.82600
H1463       H  0.00499179  0.97662299  0.35148429     0.17900
N1464       N  0.03535594  0.00005870  0.41648825    -0.81200
H1465       H  0.93255673  0.95308665  0.49004966     0.33500
H1466       H  0.93944811  0.93151431  0.44589050     0.38000
H1467       H  0.04035229  0.99838045  0.37950106     0.33500
H1468       H  0.03306348  0.01991836  0.42345568     0.30200
H1469       H  0.96795723  0.02457966  0.51986413     0.33500
H1470       H  0.98657020  0.03987198  0.47734571     0.30200
H1471       H  0.07050002  0.98117650  0.62448169     0.38100
H1472       H  0.07940328  0.97115507  0.56868736     0.33600
C1473       C  0.88515722  0.15414932  0.57215601    -0.20200
C1474       C  0.89042453  0.16110023  0.62131413     0.36000
C1475       C  0.91127425  0.14945945  0.64596453    -0.26200
C1476       C  0.92717487  0.13129504  0.62242986     0.02500
C1477       C  0.92314517  0.12575827  0.57235356     0.27300
C1478       C  0.90211151  0.13725840  0.54761924    -0.25300
N1479       N  0.87418139  0.17949806  0.64634644    -0.82700
H1480       H  0.91470762  0.15397819  0.68422182     0.13100
C1481       C  0.94743914  0.11776939  0.65140990     0.02400
N1482       N  0.94011323  0.10809882  0.54724312    -0.81200
H1483       H  0.89818242  0.13198560  0.50987910     0.17900
C1484       C  0.94607064  0.09067352  0.65748160    -0.26100
C1485       C  0.96466590  0.07723171  0.68558634     0.35900
C1486       C  0.98481910  0.09137316  0.70893054    -0.20100
C1487       C  0.98565575  0.11863980  0.70330847    -0.25400
C1488       C  0.96742494  0.13187853  0.67453800     0.27300
H1489       H  0.93047730  0.07996912  0.63988117     0.13100
N1490       N  0.96330203  0.04938076  0.68954148    -0.82600
H1491       H  0.00101082  0.12979736  0.72062128     0.17900
N1492       N  0.96932035  0.15959330  0.66811742    -0.81200
H1493       H  0.94671336  0.04223749  0.67190361     0.33500
H1494       H  0.97914059  0.04177946  0.67048989     0.38000
H1495       H  0.98510550  0.16712316  0.68769091     0.33500
H1496       H  0.97307918  0.16313580  0.63106016     0.30200
H1497       H  0.93442835  0.10597754  0.51066701     0.33500
H1498       H  0.95863330  0.11649682  0.54681721     0.30200
H1499       H  0.87615746  0.19739094  0.62849593     0.38100
H1500       H  0.88057405  0.18232328  0.68234301     0.33600
C1501       C  0.09873347  0.97243894  0.72853488    -0.20200
C1502       C  0.08596781  0.95025974  0.70912832     0.36000
C1503       C  0.10081245  0.92999202  0.68910699    -0.26200
C1504       C  0.12796147  0.93133226  0.68859097     0.02500
C1505       C  0.14077077  0.95207475  0.71186512     0.27300
C1506       C  0.12605775  0.97234164  0.73198906    -0.25300
N1507       N  0.05811052  0.94891012  0.70743132    -0.82700
H1508       H  0.09119478  0.91363300  0.67168177     0.13100
C1509       C  0.14247812  0.91221956  0.65918453     0.02400
N1510       N  0.16865654  0.95302457  0.71280821    -0.81200
H1511       H  0.13615895  0.98889758  0.74763705     0.17900
C1512       C  0.14995461  0.91897607  0.61150734    -0.26100
C1513       C  0.16086456  0.90048760  0.57972679     0.35900
C1514       C  0.16415057  0.87458177  0.59620212    -0.20100
C1515       C  0.15808902  0.86850672  0.64531808    -0.25400
C1516       C  0.14717702  0.88704719  0.67682284     0.27300
H1517       H  0.14642650  0.93858401  0.59858113     0.13100
N1518       N  0.16759317  0.90778551  0.53049285    -0.82600
H1519       H  0.16091906  0.84891263  0.65884634     0.17900
N1520       N  0.14002750  0.88024101  0.72609429    -0.81200
H1521       H  0.16288515  0.92723963  0.52388505     0.33500
H1522       H  0.18777070  0.90649071  0.52739147     0.38000
H1523       H  0.14445903  0.86077662  0.73326464     0.33500
H1524       H  0.15145875  0.89141894  0.74982752     0.30200
H1525       H  0.17513142  0.96983644  0.73068761     0.33500
H1526       H  0.17506272  0.93726686  0.73372340     0.30200
H1527       H  0.05194385  0.93166024  0.69067954     0.38100
H1528       H  0.05146086  0.94822525  0.74358513     0.33600
C1529       C  0.39931659  0.86210136  0.17327925    -0.20200
C1530       C  0.39145365  0.83794864  0.19374190     0.36000
C1531       C  0.38132787  0.81831123  0.16323116    -0.26200
C1532       C  0.37883000  0.82195148  0.11238376     0.02500
C1533       C  0.38754950  0.84546605  0.09152990     0.27300
C1534       C  0.39753895  0.86519935  0.12200083    -0.25300
N1535       N  0.39275332  0.83292461  0.24528282    -0.82700
H1536       H  0.37483443  0.80019501  0.17952220     0.13100
C1537       C  0.36695306  0.80111732  0.08132193     0.02400
N1538       N  0.38621001  0.84921140  0.03937655    -0.81200
H1539       H  0.40382427  0.88328819  0.10535593     0.17900
C1540       C  0.34416429  0.80623341  0.05461089    -0.26100
C1541       C  0.33211637  0.78684348  0.02565867     0.35900
C1542       C  0.34318323  0.76176420  0.02310427    -0.20100
C1543       C  0.36640562  0.75703914  0.04891415    -0.25400
C1544       C  0.37825139  0.77628328  0.07808077     0.27300
H1545       H  0.33555110  0.82538279  0.05695789     0.13100
N1546       N  0.30869721  0.79254689  0.99920113    -0.82600
H1547       H  0.37510483  0.73792647  0.04743196     0.17900
N1548       N  0.40168173  0.77066204  0.10464568    -0.81200
H1549       H  0.30299699  0.81176511  0.00536905     0.33500
H1550       H  0.31288514  0.79105755  0.96182870     0.38000
H1551       H  0.40735839  0.75139392  0.09890335     0.33500
H1552       H  0.41641425  0.78243493  0.09029439     0.30200
H1553       H  0.39325160  0.86762431  0.02977685     0.33500
H1554       H  0.39859138  0.83566939  0.02310705     0.30200
H1555       H  0.41209437  0.83445105  0.25654582     0.38100
H1556       H  0.38166244  0.84683653  0.26363747     0.33600
C1557       C  0.47597194  0.96071908  0.39016634    -0.20200
C1558       C  0.46511850  0.95495009  0.43634563     0.36000
C1559       C  0.47496717  0.96751192  0.47845653    -0.26200
C1560       C  0.49557242  0.98540061  0.47512817     0.02500
C1561       C  0.50698215  0.99048037  0.42924914     0.27300
C1562       C  0.49686380  0.97831806  0.38716482    -0.25300
N1563       N  0.44337287  0.93745729  0.43997376    -0.82700
H1564       H  0.46638838  0.96360826  0.51394957     0.13100
C1565       C  0.50499823  0.99877575  0.51995991     0.02400
N1566       N  0.52890904  0.00778183  0.42569589    -0.81200
H1567       H  0.50518528  0.98272018  0.35164485     0.17900
C1568       C  0.52441963  0.98710185  0.54823732    -0.26100
C1569       C  0.53334326  0.99878010  0.59177065     0.35900
C1570       C  0.52250588  0.02264644  0.60734911    -0.20100
C1571       C  0.50365792  0.03471771  0.57803761    -0.25400
C1572       C  0.49465918  0.02291744  0.53461086     0.27300
H1573       H  0.53245962  0.96869323  0.53643578     0.13100
N1574       N  0.55329970  0.98645839  0.62030601    -0.82600
H1575       H  0.49518145  0.05288468  0.59005028     0.17900
N1576       N  0.47444670  0.03487711  0.50621770    -0.81200
H1577       H  0.55905942  0.96901407  0.60398511     0.33500
H1578       H  0.56953029  0.99874506  0.62011302     0.38000
H1579       H  0.46852278  0.05225991  0.52256866     0.33500
H1580       H  0.48221622  0.03987368  0.47213540     0.30200
H1581       H  0.53532321  0.00904571  0.38943694     0.33500
H1582       H  0.52277760  0.02640291  0.43556976     0.30200
H1583       H  0.44980183  0.91893387  0.43006640     0.38100
H1584       H  0.43708279  0.93607006  0.47629621     0.33600
C1585       C  0.44509179  0.96785038  0.09744817    -0.20200
C1586       C  0.44064511  0.99427251  0.08711539     0.36000
C1587       C  0.45468055  0.00622028  0.04936440    -0.26200
C1588       C  0.47233138  0.99200801  0.02091050     0.02500
C1589       C  0.47520400  0.96504710  0.02893650     0.27300
C1590       C  0.46182781  0.95332411  0.06779093    -0.25300
N1591       N  0.42364113  0.00932980  0.11762576    -0.82700
H1592       H  0.45258774  0.02693513  0.04332721     0.13100
C1593       C  0.48789496  0.00570795  0.98334960     0.02400
N1594       N  0.49218561  0.94990191  0.99850766    -0.81200
H1595       H  0.46536960  0.93307105  0.07653276     0.17900
C1596       C  0.51503410  0.00285911  0.98279000    -0.26100
C1597       C  0.53006811  0.01327811  0.94451466     0.35900
C1598       C  0.51767059  0.02794664  0.90762195    -0.20100
C1599       C  0.49092562  0.03302830  0.91160620    -0.25400
C1600       C  0.47577714  0.02130318  0.94777292     0.27300
H1601       H  0.52434546  0.99148657  0.01118465     0.13100
N1602       N  0.55743468  0.00808213  0.94218063    -0.82600
H1603       H  0.48133179  0.04485354  0.88427099     0.17900
N1604       N  0.44801045  0.02420835  0.94708298    -0.81200
H1605       H  0.56349848  0.99797226  0.97337750     0.33500
H1606       H  0.56052432  0.99557424  0.91256383     0.38000
H1607       H  0.44222999  0.03641688  0.91846998     0.33500
H1608       H  0.43990352  0.00592293  0.93985438     0.30200
H1609       H  0.49232389  0.93046589  0.00981309     0.33500
H1610       H  0.48458234  0.95009803  0.96297897     0.30200
H1611       H  0.40480786  0.00216421  0.11260782     0.38100
H1612       H  0.42338443  0.02876400  0.10633076     0.33600
C1613       C  0.39522554  0.01722193  0.23824659    -0.20200
C1614       C  0.40885454  0.03981323  0.22312034     0.36000
C1615       C  0.39498878  0.06097738  0.20363292    -0.26200
C1616       C  0.36782057  0.06031155  0.19977650     0.02500
C1617       C  0.35409742  0.03901249  0.21954209     0.27300
C1618       C  0.36788535  0.01773678  0.23853393    -0.25300
N1619       N  0.43671452  0.04080157  0.22543476    -0.82700
H1620       H  0.40552812  0.07751288  0.18898220     0.13100
C1621       C  0.35432612  0.08060582  0.17043527     0.02400
N1622       N  0.32619698  0.03869417  0.21852192    -0.81200
H1623       H  0.35710153  0.00085206  0.25094206     0.17900
C1624       C  0.33949986  0.07294298  0.12961506    -0.26100
C1625       C  0.32843296  0.09136208  0.09778357     0.35900
C1626       C  0.33266577  0.11813496  0.10642099    -0.20100
C1627       C  0.34665996  0.12574422  0.14852680    -0.25400
C1628       C  0.35746351  0.10730250  0.18057308     0.27300
H1629       H  0.33711616  0.05240342  0.12181652     0.13100
N1630       N  0.31318426  0.08290861  0.05657384    -0.82600
H1631       H  0.34989879  0.14621532  0.15584377     0.17900
N1632       N  0.37191063  0.11555557  0.22295900    -0.81200
H1633       H  0.31221287  0.06260086  0.05522077     0.33500
H1634       H  0.29421029  0.08942417  0.06208483     0.38000
H1635       H  0.37261760  0.13585832  0.22498877     0.33500
H1636       H  0.36182372  0.10915168  0.25394315     0.30200
H1637       H  0.31900553  0.02149858  0.23393098     0.33500
H1638       H  0.31976324  0.05392197  0.24074565     0.30200
H1639       H  0.44198305  0.03999360  0.26240968     0.38100
H1640       H  0.44366625  0.05855841  0.21201109     0.33600
C1641       C  0.36660842  0.90513380  0.35260026    -0.20200
C1642       C  0.33973876  0.90650741  0.34258430     0.36000
C1643       C  0.32220691  0.89334095  0.37335569    -0.26200
C1644       C  0.33091336  0.87911000  0.41405951     0.02500
C1645       C  0.35754047  0.87838166  0.42503446     0.27300
C1646       C  0.37509609  0.89141555  0.39433118    -0.25300
N1647       N  0.33033410  0.92101392  0.30122589    -0.82700
H1648       H  0.30161174  0.89389807  0.36531896     0.13100
C1649       C  0.31171659  0.86499687  0.44449839     0.02400
N1650       N  0.36662260  0.86423788  0.46708903    -0.81200
H1651       H  0.39563925  0.89017083  0.40244882     0.17900
C1652       C  0.31240090  0.83774040  0.44711127    -0.26100
C1653       C  0.29205944  0.82372275  0.46916353     0.35900
C1654       C  0.27058618  0.83720383  0.48866645    -0.20100
C1655       C  0.27150987  0.86460131  0.49042601    -0.25400
C1656       C  0.29173735  0.87858359  0.46825428     0.27300
H1657       H  0.32812862  0.82724964  0.42982151     0.13100
N1658       N  0.29296037  0.79588664  0.47016275    -0.82600
H1659       H  0.25554045  0.87533848  0.50627118     0.17900
N1660       N  0.29160056  0.90655827  0.46800250    -0.81200
H1661       H  0.30967881  0.79041215  0.48923384     0.33500
H1662       H  0.29472037  0.78918945  0.43416362     0.38000
H1663       H  0.27535239  0.91364355  0.48653422     0.33500
H1664       H  0.30788914  0.91289139  0.48761420     0.30200
H1665       H  0.38683724  0.86543652  0.46981925     0.33500
H1666       H  0.35913370  0.87332658  0.49825899     0.30200
H1667       H  0.33473441  0.94061632  0.30744329     0.38100
H1668       H  0.31011712  0.91969039  0.29878780     0.33600
C1669       C  0.50732681  0.89687990  0.20768830    -0.20200
C1670       C  0.52968724  0.91048803  0.19147699     0.36000
C1671       C  0.54779224  0.89769093  0.16130467    -0.26200
C1672       C  0.54423159  0.87160587  0.14760265     0.02500
C1673       C  0.52216405  0.85798092  0.16388856     0.27300
C1674       C  0.50408072  0.87064717  0.19376428    -0.25300
N1675       N  0.53397227  0.93714398  0.20529009    -0.82700
H1676       H  0.56504168  0.90792653  0.14910310     0.13100
C1677       C  0.56458253  0.85814841  0.11895952     0.02400
N1678       N  0.51814053  0.83132861  0.14963648    -0.81200
H1679       H  0.48704248  0.85991627  0.20544773     0.17900
C1680       C  0.57824692  0.83780962  0.14121956    -0.26100
C1681       C  0.59873347  0.82550716  0.11695845     0.35900
C1682       C  0.60563968  0.83338911  0.06926675    -0.20100
C1683       C  0.59116432  0.85293987  0.04595613    -0.25400
C1684       C  0.57074130  0.86555987  0.07055773     0.27300
H1685       H  0.57341393  0.83190863  0.17824444     0.13100
N1686       N  0.61268459  0.80513171  0.14107211    -0.82600
H1687       H  0.59657100  0.85920535  0.00943766     0.17900
N1688       N  0.55655880  0.88611147  0.04707801    -0.81200
H1689       H  0.59946932  0.79043280  0.15023059     0.33500
H1690       H  0.62042373  0.81263134  0.17359604     0.38000
H1691       H  0.56366409  0.88937549  0.01171956     0.33500
H1692       H  0.53733297  0.87985012  0.04317792     0.30200
H1693       H  0.50100751  0.82398693  0.16490059     0.33500
H1694       H  0.51563588  0.83097052  0.11161539     0.30200
H1695       H  0.53728586  0.93749451  0.24308841     0.38100
H1696       H  0.55084039  0.94441843  0.18889552     0.33600
loop_ 
_geom_bond_atom_site_label_1 
_geom_bond_atom_site_label_2 
_geom_bond_distance 
_geom_bond_site_symmetry_2 
_ccdc_geom_bond_type 
O1          Cr19   2.017       .  S
O1            C9   1.267       .  A
O2          Cr19   1.950       .  S
O2            C3   1.251       .  A
C3            O4   1.267       .  A
C3         C1585   1.459       .  S
O4          Cr20   2.023       .  S
O5          Cr20   1.963       .  S
O5            C6   1.258       .  A
C6            O7   1.274       .  A
C6         C1529   1.499       .  S
O7          Cr21   2.043       .  S
O8          Cr21   1.958       .  S
O8            C9   1.255       .  A
C9         C1669   1.491       .  S
O10         Cr19   1.958       .  S
O10          C18   1.258       .  A
O11         Cr19   2.029       .  S
O11          C12   1.272       .  A
C12          O13   1.261       .  A
C12        C1613   1.493   1_565  S
O13         Cr20   1.971       .  S
O14         Cr20   2.023       .  S
O14          C15   1.269       .  A
C15          O16   1.256       .  A
C15        C1641   1.484       .  S
O16         Cr21   1.956       .  S
O17         Cr21   2.038       .  S
O17          C18   1.275       .  A
C18        C1557   1.481       .  S
Cr19         O22   1.763       .  S
Cr20         O22   1.766       .  S
Cr21         O22   1.761       .  S
O23         Cr41   2.026       .  S
O23          C31   1.270       .  A
O24         Cr41   1.943       .  S
O24          C25   1.252       .  A
C25          O26   1.272       .  A
C25        C1445   1.475       .  S
O26         Cr42   2.046       .  S
O27         Cr42   1.954       .  S
O27          C28   1.256       .  A
C28          O29   1.273       .  A
C28        C1361   1.485       .  S
O29         Cr43   2.039       .  S
O30         Cr43   1.954       .  S
O30          C31   1.255       .  A
C31        C1486   1.491   1_455  S
O32         Cr41   1.956       .  S
O32          C40   1.256       .  A
O33         Cr41   2.029   1_565  S
O33          C34   1.271       .  A
C34          O35   1.257   1_565  A
C34        C1501   1.489       .  S
O35         Cr42   1.962       .  S
O36         Cr42   2.035       .  S
O36          C37   1.273       .  A
C37          O38   1.258       .  A
C37        C1402   1.492       .  S
O38         Cr43   1.957       .  S
O39         Cr43   2.042       .  S
O39          C40   1.275       .  A
C40        C1417   1.485       .  S
Cr41         O44   1.758       .  S
Cr42         O44   1.760       .  S
Cr43         O44   1.761       .  S
O45         Cr63   2.025       .  S
O45          C53   1.271       .  A
O46         Cr63   1.957       .  S
O46          C47   1.255       .  A
C47          O48   1.271       .  A
C47        C1305   1.468       .  S
O48         Cr64   2.037       .  S
O49         Cr64   1.954       .  S
O49          C50   1.257       .  A
C50          O51   1.274       .  A
C50        C1346   1.486       .  S
O51         Cr65   2.037       .  S
O52         Cr65   1.957       .  S
O52          C53   1.255       .  A
C53        C1262   1.484       .  S
O54         Cr63   1.959       .  S
O54          C62   1.257       .  A
O55         Cr63   2.035       .  S
O55          C56   1.270       .  A
C56          O57   1.255       .  A
C56        C1654   1.487       .  S
O57         Cr64   1.959       .  S
O58         Cr64   2.024       .  S
O58          C59   1.269       .  A
C59          O60   1.256       .  A
C59        C1514   1.489       .  S
O60         Cr65   1.961       .  S
O61         Cr65   2.037       .  S
O61          C62   1.273       .  A
C62        C1277   1.481       .  S
Cr63         O66   1.761       .  S
Cr64         O66   1.759       .  S
Cr65         O66   1.762       .  S
O67         Cr85   1.968       .  S
O67          C75   1.259       .  A
O68         Cr85   2.048       .  S
O68          C69   1.274       .  A
C69          O70   1.256       .  A
C69        C1193   1.494       .  S
O70         Cr86   1.960       .  S
O71         Cr86   2.055       .  S
O71          C72   1.273       .  A
C72          O73   1.248       .  A
C72        C1458   1.481       .  S
O73         Cr87   1.933       .  S
O74         Cr87   2.020       .  S
O74          C75   1.269       .  A
C75        C1333   1.489   1_655  S
O76         Cr85   2.054       .  S
O76          C84   1.277       .  A
O77         Cr85   1.960       .  S
O77          C78   1.260       .  A
C78          O79   1.276       .  A
C78        C1178   1.487       .  S
O79         Cr86   2.036       .  S
O80         Cr86   1.964       .  S
O80          C81   1.257       .  A
C81          O82   1.273       .  A
C81        C1234   1.498   1_565  S
O82         Cr87   2.042       .  S
O83         Cr87   1.955       .  S
O83          C84   1.258       .  A
C84        C1430   1.498       .  S
Cr85         O88   1.765       .  S
Cr86         O88   1.760       .  S
Cr87         O88   1.751       .  S
O89        Cr107   1.967       .  S
O89          C97   1.256       .  A
O90        Cr107   2.033       .  S
O90          C91   1.270       .  A
C91          O92   1.256       .  A
C91        C1473   1.480       .  S
O92        Cr108   1.960       .  S
O93        Cr108   2.045       .  S
O93          C94   1.271       .  A
C94          O95   1.251       .  A
C94        C1122   1.487       .  S
O95        Cr109   1.947       .  S
O96        Cr109   2.020       .  S
O96          C97   1.269       .  A
C97        C1137   1.498       .  S
O98        Cr107   2.041       .  S
O98         C106   1.275       .  A
O99        Cr107   1.969       .  S
O99         C100   1.261       .  A
C100        O101   1.275       .  A
C100       C1221   1.494       .  S
O101       Cr108   2.039       .  S
O102       Cr108   1.965       .  S
O102        C103   1.260       .  A
C103        O104   1.270       .  A
C103       C1053   1.490       .  S
O104       Cr109   2.024       .  S
O105       Cr109   1.968       .  S
O105        C106   1.259       .  A
C106       C1081   1.497       .  S
Cr107       O110   1.767       .  S
Cr108       O110   1.765       .  S
Cr109       O110   1.763       .  S
O111       Cr129   1.962       .  S
O111        C119   1.257       .  A
O112       Cr129   2.030       .  S
O112        C113   1.270       .  A
C113        O114   1.255       .  A
C113        C997   1.480       .  S
O114       Cr130   1.957       .  S
O115       Cr130   2.048       .  S
O115        C116   1.273       .  A
C116        O117   1.251       .  A
C116        C969   1.487       .  S
O117       Cr131   1.939       .  S
O118       Cr131   2.018       .  S
O118        C119   1.269       .  A
C119       C1374   1.484       .  S
O120       Cr129   2.035       .  S
O120        C128   1.272       .  A
O121       Cr129   1.963       .  S
O121        C122   1.261       .  A
C122        O123   1.275       .  A
C122       C1038   1.496       .  S
O123       Cr130   2.040       .  S
O124       Cr130   1.962       .  S
O124        C125   1.258       .  A
C125        O126   1.269       .  A
C125        C913   1.491       .  S
O126       Cr131   2.023       .  S
O127       Cr131   1.956       .  S
O127        C128   1.257       .  A
C128        C954   1.486       .  S
Cr129       O132   1.765       .  S
Cr130       O132   1.760       .  S
Cr131       O132   1.757       .  S
O133       Cr151   1.960       .  S
O133        C141   1.257   1_455  A
O134       Cr151   2.033       .  S
O134        C135   1.270       .  A
C135        O136   1.256       .  A
C135       C1249   1.489       .  S
O136       Cr152   1.960       .  S
O137       Cr152   2.040       .  S
O137        C138   1.272       .  A
C138        O139   1.251       .  A
C138        C857   1.478       .  S
O139       Cr153   1.941       .  S
O140       Cr153   2.027   1_655  S
O140        C141   1.270       .  A
C141        C801   1.497       .  S
O142       Cr151   2.033       .  S
O142        C150   1.273       .  A
O143       Cr151   1.961       .  S
O143        C144   1.258       .  A
C144        O145   1.274       .  A
C144        C898   1.489       .  S
O145       Cr152   2.031       .  S
O146       Cr152   1.964       .  S
O146        C147   1.256       .  A
C147        O148   1.272       .  A
C147       C1025   1.488       .  S
O148       Cr153   2.037       .  S
O149       Cr153   1.962       .  S
O149        C150   1.259       .  A
C150        C829   1.486       .  S
Cr151       O154   1.765       .  S
Cr152       O154   1.760       .  S
Cr153       O154   1.762       .  S
O155       Cr173   2.023       .  S
O155        C163   1.269       .  A
O156       Cr173   1.956       .  S
O156        C157   1.253       .  A
C157        O158   1.270       .  A
C157        C870   1.467       .  S
O158       Cr174   2.038       .  S
O159       Cr174   1.960       .  S
O159        C160   1.258       .  A
C160        O161   1.274       .  A
C160       C1150   1.487       .  S
O161       Cr175   2.041       .  S
O162       Cr175   1.956       .  S
O162        C163   1.254       .  A
C163       C1010   1.484   1_655  S
O164       Cr173   1.953       .  S
O164        C172   1.257       .  A
O165       Cr173   2.034       .  S
O165        C166   1.273       .  A
C166        O167   1.260       .  A
C166        C758   1.496       .  S
O167       Cr174   1.969       .  S
O168       Cr174   2.037       .  S
O168        C169   1.273       .  A
C169        O170   1.256       .  A
C169        C773   1.496       .  S
O170       Cr175   1.962       .  S
O171       Cr175   2.042       .  S
O171        C172   1.275       .  A
C172        C842   1.494       .  S
Cr173       O176   1.761       .  S
Cr174       O176   1.763       .  S
Cr175       O176   1.764       .  S
O177       Cr195   1.972       .  S
O177        C185   1.258       .  A
O178       Cr195   2.033       .  S
O178        C179   1.270   1_556  A
C179        O180   1.256       .  A
C179        C730   1.476       .  S
O180       Cr196   1.962       .  S
O181       Cr196   2.044       .  S
O181        C182   1.271       .  A
C182        O183   1.249       .  A
C182       C1318   1.481       .  S
O183       Cr197   1.940       .  S
O184       Cr197   2.021   1_556  S
O184        C185   1.269       .  A
C185       C1542   1.495   1_556  S
O186       Cr195   2.045       .  S
O186        C194   1.276       .  A
O187       Cr195   1.975       .  S
O187        C188   1.264       .  A
C188        O189   1.274       .  A
C188        C689   1.496       .  S
O189       Cr196   2.031   1_556  S
O190       Cr196   1.964       .  S
O190        C191   1.258       .  A
C191        O192   1.271       .  A
C191        C885   1.488       .  S
O192       Cr197   2.028       .  S
O193       Cr197   1.955   1_556  S
O193        C194   1.255       .  A
C194       C1290   1.495       .  S
Cr195       O198   1.767   1_556  S
Cr196       O198   1.760       .  S
Cr197       O198   1.758       .  S
O199       Cr217   2.027   1_554  S
O199        C207   1.270   1_554  A
O200       Cr217   1.957       .  S
O200        C201   1.252       .  A
C201        O202   1.271       .  A
C201       C1109   1.470       .  S
O202       Cr218   2.038       .  S
O203       Cr218   1.949       .  S
O203        C204   1.254       .  A
C204        O205   1.277       .  A
C204        C605   1.492       .  S
O205       Cr219   2.053   1_556  S
O206       Cr219   1.957       .  S
O206        C207   1.256   1_554  A
C207        C674   1.491       .  S
O208       Cr217   1.961   1_554  S
O208        C216   1.259       .  A
O209       Cr217   2.045       .  S
O209        C210   1.274       .  A
C210        O211   1.255   1_556  A
C210        C786   1.494       .  S
O211       Cr218   1.956   1_554  S
O212       Cr218   2.031   1_554  S
O212        C213   1.271       .  A
C213        O214   1.258       .  A
C213        C633   1.492       .  S
O214       Cr219   1.962       .  S
O215       Cr219   2.056       .  S
O215        C216   1.278       .  A
C216       C1094   1.500       .  S
Cr217       O220   1.759   1_556  S
Cr218       O220   1.758   1_556  S
Cr219       O220   1.761       .  S
O221       Cr239   1.955       .  S
O221        C229   1.256       .  A
O222       Cr239   2.047       .  S
O222        C223   1.273       .  A
C223        O224   1.256       .  A
C223        C577   1.490       .  S
O224       Cr240   1.959       .  S
O225       Cr240   2.039       .  S
O225        C226   1.270       .  A
C226        O227   1.249       .  A
C226        C549   1.481       .  S
O227       Cr241   1.939       .  S
O228       Cr241   2.030       .  S
O228        C229   1.272       .  A
C229        C618   1.497       .  S
O230       Cr239   2.044       .  S
O230        C238   1.275       .  A
O231       Cr239   1.964       .  S
O231        C232   1.260       .  A
C232        O233   1.273       .  A
C232        C926   1.483       .  S
O233       Cr240   2.027       .  S
O234       Cr240   1.958       .  S
O234        C235   1.256       .  A
C235        O236   1.274       .  A
C235        C702   1.488       .  S
O236       Cr241   2.039       .  S
O237       Cr241   1.962       .  S
O237        C238   1.256       .  A
C238        C521   1.499       .  S
Cr239       O242   1.766       .  S
Cr240       O242   1.760       .  S
Cr241       O242   1.760       .  S
O243       Cr261   2.034       .  S
O243        C251   1.272       .  A
O244       Cr261   1.951       .  S
O244        C245   1.251       .  A
C245        O246   1.272       .  A
C245        C982   1.469       .  S
O246       Cr262   2.045       .  S
O247       Cr262   1.946       .  S
O247        C248   1.256       .  A
C248        O249   1.274       .  A
C248        C506   1.488       .  S
O249       Cr263   2.042   1_556  S
O250       Cr263   1.953   1_556  S
O250        C251   1.254       .  A
C251        C590   1.492       .  S
O252       Cr261   1.949   1_554  S
O252        C260   1.256       .  A
O253       Cr261   2.044       .  S
O253        C254   1.274       .  A
C254        O255   1.255   1_556  A
C254       C1389   1.490       .  S
O255       Cr262   1.957   1_554  S
O256       Cr262   2.033   1_554  S
O256        C257   1.272       .  A
C257        O258   1.257       .  A
C257       C1626   1.490       .  S
O258       Cr263   1.961       .  S
O259       Cr263   2.040       .  S
O259        C260   1.275       .  A
C260        C941   1.485       .  S
Cr261       O264   1.759   1_556  S
Cr262       O264   1.756   1_556  S
Cr263       O264   1.761       .  S
O265       Cr283   1.964       .  S
O265        C273   1.257       .  A
O266       Cr283   2.028       .  S
O266        C267   1.269       .  A
C267        O268   1.256       .  A
C267        C661   1.480       .  S
O268       Cr284   1.967       .  S
O269       Cr284   2.030       .  S
O269        C270   1.270       .  A
C270        O271   1.252       .  A
C270       C1598   1.478       .  S
O271       Cr285   1.938       .  S
O272       Cr285   2.013       .  S
O272        C273   1.268       .  A
C273        C493   1.486       .  S
O274       Cr283   2.035       .  S
O274        C282   1.273       .  A
O275       Cr283   1.959       .  S
O275        C276   1.259       .  A
C276        O277   1.273       .  A
C276       C1066   1.483       .  S
O277       Cr284   2.025       .  S
O278       Cr284   1.968       .  S
O278        C279   1.258   1_545  A
C279        O280   1.268       .  A
C279        C478   1.482       .  S
O280       Cr285   2.020   1_565  S
O281       Cr285   1.962       .  S
O281        C282   1.257       .  A
C282       C1570   1.484       .  S
Cr283       O286   1.764       .  S
Cr284       O286   1.760       .  S
Cr285       O286   1.757       .  S
O287       Cr305   1.955       .  S
O287        C295   1.255   1_556  A
O288       Cr305   2.032   1_554  S
O288        C289   1.270       .  A
C289        O290   1.258       .  A
C289       C1682   1.478       .  S
O290       Cr306   1.965       .  S
O291       Cr306   2.048       .  S
O291        C292   1.273       .  A
C292        O293   1.251       .  A
C292        C450   1.488       .  S
O293       Cr307   1.945       .  S
O294       Cr307   2.019   1_556  S
O294        C295   1.269   1_556  A
C295        C381   1.488       .  S
O296       Cr305   2.035       .  S
O296        C304   1.272       .  A
O297       Cr305   1.961       .  S
O297        C298   1.259       .  A
C298        O299   1.274       .  A
C298        C465   1.490       .  S
O299       Cr306   2.033   1_556  S
O300       Cr306   1.965       .  S
O300        C301   1.259       .  A
C301        O302   1.270       .  A
C301       C1165   1.491       .  S
O302       Cr307   2.024       .  S
O303       Cr307   1.957   1_556  S
O303        C304   1.257       .  A
C304        C409   1.495       .  S
Cr305       O308   1.766   1_556  S
Cr306       O308   1.760       .  S
Cr307       O308   1.757       .  S
O309       Cr327   2.034       .  S
O309        C317   1.273       .  A
O310       Cr327   1.953       .  S
O310        C311   1.253       .  A
C311        O312   1.273       .  A
C311        C437   1.474       .  S
O312       Cr328   2.044       .  S
O313       Cr328   1.957       .  S
O313        C314   1.257       .  A
C314        O315   1.273       .  A
C314        C814   1.495       .  S
O315       Cr329   2.038       .  S
O316       Cr329   1.959       .  S
O316        C317   1.256       .  A
C317       C1206   1.491       .  S
O318       Cr327   1.959       .  S
O318        C326   1.257       .  A
O319       Cr327   2.045       .  S
O319        C320   1.273       .  A
C320        O321   1.256       .  A
C320        C353   1.496       .  S
O321       Cr328   1.961       .  S
O322       Cr328   2.038       .  S
O322        C323   1.274       .  A
C323        O324   1.257       .  A
C323        C745   1.491       .  S
O324       Cr329   1.966       .  S
O325       Cr329   2.037       .  S
O325        C326   1.273       .  A
C326        C422   1.477       .  S
Cr327       O330   1.761       .  S
Cr328       O330   1.758       .  S
Cr329       O330   1.763       .  S
O331       Cr349   2.025       .  S
O331        C339   1.270       .  A
O332       Cr349   1.957       .  S
O332        C333   1.254       .  A
C333        O334   1.270       .  A
C333        C562   1.467       .  S
O334       Cr350   2.036       .  S
O335       Cr350   1.959       .  S
O335        C336   1.256       .  A
C336        O337   1.269       .  A
C336        C394   1.472       .  S
O337       Cr351   2.026       .  S
O338       Cr351   1.961       .  S
O338        C339   1.256       .  A
C339        C717   1.495       .  S
O340       Cr349   1.967       .  S
O340        C348   1.260       .  A
O341       Cr349   2.031       .  S
O341        C342   1.271       .  A
C342        O343   1.259       .  A
C342        C646   1.491       .  S
O343       Cr350   1.966       .  S
O344       Cr350   2.037       .  S
O344        C345   1.275       .  A
C345        O346   1.258       .  A
C345        C366   1.497       .  S
O346       Cr351   1.963       .  S
O347       Cr351   2.034       .  S
O347        C348   1.272       .  A
C348        C534   1.486       .  S
Cr349       O352   1.761       .  S
Cr350       O352   1.762       .  S
Cr351       O352   1.764       .  S
C353        C354   1.421       .  A
C353        C358   1.409       .  A
C354        C355   1.406       .  A
C354        N359   1.438       .  S
C355        C356   1.398       .  A
C355        H360   1.084       .  S
C356        C361   1.485       .  S
C356        C357   1.410       .  A
C357        C358   1.411       .  A
C357        N362   1.438       .  S
C358        H363   1.083       .  S
N359        H379   1.045       .  S
N359        H380   1.046       .  S
C361        C364   1.398       .  A
C361        C368   1.410       .  A
N362        H377   1.046       .  S
N362        H378   1.046       .  S
C364        C365   1.408       .  A
C364        H369   1.084       .  S
C365        C366   1.423       .  A
C365        N370   1.438       .  S
C366        C367   1.407       .  A
C367        C368   1.408       .  A
C367        H371   1.083       .  S
C368        N372   1.438       .  S
N370        H373   1.046       .  S
N370        H374   1.045       .  S
N372        H375   1.046       .  S
N372        H376   1.046       .  S
C381        C382   1.419       .  A
C381        C386   1.407       .  A
C382        C383   1.398       .  A
C382        N387   1.433       .  S
C383        C384   1.395       .  A
C383        H388   1.084       .  S
C384        C389   1.475       .  S
C384        C385   1.410       .  A
C385        C386   1.408       .  A
C385        N390   1.438       .  S
C386        H391   1.083       .  S
N387        H407   1.046       .  S
N387        H408   1.046       .  S
C389        C392   1.399       .  A
C389        C396   1.411       .  A
N390        H405   1.046       .  S
N390        H406   1.044       .  S
C392        C393   1.402       .  A
C392        H397   1.084       .  S
C393        C394   1.411       .  A
C393        N398   1.437       .  S
C394        C395   1.401       .  A
C395        C396   1.406       .  A
C395        H399   1.084       .  S
C396        N400   1.437       .  S
N398        H401   1.046       .  S
N398        H402   1.046       .  S
N400        H403   1.046       .  S
N400        H404   1.044       .  S
C409        C410   1.416       .  A
C409        C414   1.411       .  A
C410        C411   1.410       .  A
C410        N415   1.437       .  S
C411        C412   1.406       .  A
C411        H416   1.084       .  S
C412        C417   1.490       .  S
C412        C413   1.407       .  A
C413        C414   1.404       .  A
C413        N418   1.438       .  S
C414        H419   1.083       .  S
N415        H435   1.046       .  S
N415        H436   1.046       .  S
C417        C420   1.407       .  A
C417        C424   1.411       .  A
N418        H433   1.046       .  S
N418        H434   1.046       .  S
C420        C421   1.409       .  A
C420        H425   1.083       .  S
C421        C422   1.410       .  A
C421        N426   1.437       .  S
C422        C423   1.403       .  A
C423        C424   1.404       .  A
C423        H427   1.084       .  S
C424        N428   1.438       .  S
N426        H429   1.046       .  S
N426        H430   1.045       .  S
N428        H431   1.046       .  S
N428        H432   1.046       .  S
C437        C438   1.410       .  A
C437        C442   1.400       .  A
C438        C439   1.406       .  A
C438        N443   1.438       .  S
C439        C440   1.407       .  A
C439        H444   1.083       .  S
C440        C445   1.501       .  S
C440        C441   1.420       .  A
C441        C442   1.407       .  A
C441        N446   1.438       .  S
C442        H447   1.084       .  S
N443        H463   1.045       .  S
N443        H464   1.046       .  S
C445        C448   1.402       .  A
C445        C452   1.421       .  A
N446        H461   1.046       .  S
N446        H462   1.046       .  S
C448        C449   1.398       .  A
C448        H453   1.083       .  S
C449        C450   1.414       .  A
C449        N454   1.433       .  S
C450        C451   1.404       .  A
C451        C452   1.413       .  A
C451        H455   1.083       .  S
C452        N456   1.438       .  S
N454        H457   1.045       .  S
N454        H458   1.046       .  S
N456        H459   1.046       .  S
N456        H460   1.045       .  S
C465        C466   1.416       .  A
C465        C470   1.409       .  A
C466        C467   1.405       .  A
C466        N471   1.438       .  S
C467        C468   1.403       .  A
C467        H472   1.084       .  S
C468        C473   1.489       .  S
C468        C469   1.410       .  A
C469        C470   1.407       .  A
C469        N474   1.438       .  S
C470        H475   1.083       .  S
N471        H491   1.045   1_556  S
N471        H492   1.046   1_556  S
C473        C476   1.403       .  A
C473        C480   1.413       .  A
N474        H489   1.046       .  S
N474        H490   1.046       .  S
C476        C477   1.405       .  A
C476        H481   1.083       .  S
C477        C478   1.412       .  A
C477        N482   1.438       .  S
C478        C479   1.405       .  A
C479        C480   1.406       .  A
C479        H483   1.084       .  S
C480        N484   1.438       .  S
N482        H485   1.046       .  S
N482        H486   1.046       .  S
N484        H487   1.046       .  S
N484        H488   1.046       .  S
C493        C494   1.416       .  A
C493        C498   1.408       .  A
C494        C495   1.406       .  A
C494        N499   1.438       .  S
C495        C496   1.403       .  A
C495        H500   1.084       .  S
C496        C501   1.484       .  S
C496        C497   1.407       .  A
C497        C498   1.404       .  A
C497        N502   1.438       .  S
C498        H503   1.083       .  S
N499        H519   1.045       .  S
N499        H520   1.046       .  S
C501        C504   1.407       .  A
C501        C508   1.405       .  A
N502        H517   1.045       .  S
N502        H518   1.046       .  S
C504        C505   1.412       .  A
C504        H509   1.084       .  S
C505        C506   1.414       .  A
C505        N510   1.437       .  S
C506        C507   1.410       .  A
C507        C508   1.398       .  A
C507        H511   1.083       .  S
C508        N512   1.439       .  S
N510        H513   1.046       .  S
N510        H514   1.045   1_556  S
N512        H515   1.046       .  S
N512        H516   1.046       .  S
C521        C522   1.421       .  A
C521        C526   1.406       .  A
C522        C523   1.406       .  A
C522        N527   1.433       .  S
C523        C524   1.401       .  A
C523        H528   1.084       .  S
C524        C529   1.495       .  S
C524        C525   1.413       .  A
C525        C526   1.412       .  A
C525        N530   1.437       .  S
C526        H531   1.083       .  S
N527        H547   1.046       .  S
N527        H548   1.046       .  S
C529        C532   1.403       .  A
C529        C536   1.415       .  A
N530        H545   1.045       .  S
N530        H546   1.046       .  S
C532        C533   1.406       .  A
C532        H537   1.084       .  S
C533        C534   1.413       .  A
C533        N538   1.438       .  S
C534        C535   1.404       .  A
C535        C536   1.413       .  A
C535        H539   1.084       .  S
C536        N540   1.437       .  S
N538        H541   1.046       .  S
N538        H542   1.046       .  S
N540        H543   1.046       .  S
N540        H544   1.046       .  S
C549        C550   1.417       .  A
C549        C554   1.401       .  A
C550        C551   1.400       .  A
C550        N555   1.438       .  S
C551        C552   1.399       .  A
C551        H556   1.083       .  S
C552        C557   1.487   1_556  S
C552        C553   1.416       .  A
C553        C554   1.409       .  A
C553        N558   1.438   1_556  S
C554        H559   1.083       .  S
N555        H575   1.044       .  S
N555        H576   1.045       .  S
C557        C560   1.404       .  A
C557        C564   1.414       .  A
N558        H573   1.046       .  S
N558        H574   1.046       .  S
C560        C561   1.398       .  A
C560        H565   1.084       .  S
C561        C562   1.413       .  A
C561        N566   1.438       .  S
C562        C563   1.403       .  A
C563        C564   1.406       .  A
C563        H567   1.085       .  S
C564        N568   1.438       .  S
N566        H569   1.046       .  S
N566        H570   1.043       .  S
N568        H571   1.046       .  S
N568        H572   1.046       .  S
C577        C578   1.415       .  A
C577        C582   1.407       .  A
C578        C579   1.413       .  A
C578        N583   1.437       .  S
C579        C580   1.406       .  A
C579        H584   1.084       .  S
C580        C585   1.492       .  S
C580        C581   1.410       .  A
C581        C582   1.403       .  A
C581        N586   1.439       .  S
C582        H587   1.084       .  S
N583        H603   1.045       .  S
N583        H604   1.046       .  S
C585        C588   1.400       .  A
C585        C592   1.413       .  A
N586        H601   1.046       .  S
N586        H602   1.046       .  S
C588        C589   1.403       .  A
C588        H593   1.084       .  S
C589        C590   1.419       .  A
C589        N594   1.439       .  S
C590        C591   1.407       .  A
C591        C592   1.413       .  A
C591        H595   1.083       .  S
C592        N596   1.437       .  S
N594        H597   1.046   1_556  S
N594        H598   1.046       .  S
N596        H599   1.046       .  S
N596        H600   1.046       .  S
C605        C606   1.422       .  A
C605        C610   1.405       .  A
C606        C607   1.405       .  A
C606        N611   1.439       .  S
C607        C608   1.397       .  A
C607        H612   1.084       .  S
C608        C613   1.483       .  S
C608        C609   1.411       .  A
C609        C610   1.410       .  A
C609        N614   1.436       .  S
C610        H615   1.083       .  S
N611        H631   1.045       .  S
N611        H632   1.046       .  S
C613        C616   1.395       .  A
C613        C620   1.410       .  A
N614        H629   1.045       .  S
N614        H630   1.045       .  S
C616        C617   1.402       .  A
C616        H621   1.084       .  S
C617        C618   1.424       .  A
C617        N622   1.439       .  S
C618        C619   1.409       .  A
C619        C620   1.413       .  A
C619        H623   1.083       .  S
C620        N624   1.437       .  S
N622        H625   1.046       .  S
N622        H626   1.046       .  S
N624        H627   1.046       .  S
N624        H628   1.045       .  S
C633        C634   1.417       .  A
C633        C638   1.411       .  A
C634        C635   1.409       .  A
C634        N639   1.438       .  S
C635        C636   1.404       .  A
C635        H640   1.084       .  S
C636        C641   1.485       .  S
C636        C637   1.405       .  A
C637        C638   1.404       .  A
C637        N642   1.438       .  S
C638        H643   1.083       .  S
N639        H659   1.046       .  S
N639        H660   1.046       .  S
C641        C644   1.404       .  A
C641        C648   1.406       .  A
N642        H657   1.046       .  S
N642        H658   1.045       .  S
C644        C645   1.409       .  A
C644        H649   1.084       .  S
C645        C646   1.415       .  A
C645        N650   1.437       .  S
C646        C647   1.410       .  A
C647        C648   1.405       .  A
C647        H651   1.083       .  S
C648        N652   1.438       .  S
N650        H653   1.046       .  S
N650        H654   1.046       .  S
N652        H655   1.046       .  S
N652        H656   1.045       .  S
C661        C662   1.414       .  A
C661        C666   1.404       .  A
C662        C663   1.406       .  A
C662        N667   1.438       .  S
C663        C664   1.402       .  A
C663        H668   1.084       .  S
C664        C669   1.486       .  S
C664        C665   1.411       .  A
C665        C666   1.406       .  A
C665        N670   1.438       .  S
C666        H671   1.084       .  S
N667        H687   1.046       .  S
N667        H688   1.046       .  S
C669        C672   1.404       .  A
C669        C676   1.407       .  A
N670        H685   1.046       .  S
N670        H686   1.046       .  S
C672        C673   1.408       .  A
C672        H677   1.084       .  S
C673        C674   1.415       .  A
C673        N678   1.437       .  S
C674        C675   1.411       .  A
C675        C676   1.404       .  A
C675        H679   1.083       .  S
C676        N680   1.438       .  S
N678        H681   1.046       .  S
N678        H682   1.045       .  S
N680        H683   1.046       .  S
N680        H684   1.046       .  S
C689        C690   1.415       .  A
C689        C694   1.411       .  A
C690        C691   1.403       .  A
C690        N695   1.432       .  S
C691        C692   1.402       .  A
C691        H696   1.084       .  S
C692        C697   1.490       .  S
C692        C693   1.410       .  A
C693        C694   1.411       .  A
C693        N698   1.438       .  S
C694        H699   1.083       .  S
N695        H715   1.046   1_556  S
N695        H716   1.046   1_556  S
C697        C700   1.402       .  A
C697        C704   1.412       .  A
N698        H713   1.046       .  S
N698        H714   1.045       .  S
C700        C701   1.409       .  A
C700        H705   1.084       .  S
C701        C702   1.418       .  A
C701        N706   1.438       .  S
C702        C703   1.403       .  A
C703        C704   1.407       .  A
C703        H707   1.083       .  S
C704        N708   1.438       .  S
N706        H709   1.046       .  S
N706        H710   1.046       .  S
N708        H711   1.046       .  S
N708        H712   1.046       .  S
C717        C718   1.416       .  A
C717        C722   1.410       .  A
C718        C719   1.411       .  A
C718        N723   1.437       .  S
C719        C720   1.406       .  A
C719        H724   1.083       .  S
C720        C725   1.492       .  S
C720        C721   1.409       .  A
C721        C722   1.403       .  A
C721        N726   1.439       .  S
C722        H727   1.083       .  S
N723        H743   1.046       .  S
N723        H744   1.046       .  S
C725        C728   1.405       .  A
C725        C732   1.414       .  A
N726        H741   1.045       .  S
N726        H742   1.046       .  S
C728        C729   1.404       .  A
C728        H733   1.083       .  S
C729        C730   1.411       .  A
C729        N734   1.438       .  S
C730        C731   1.403       .  A
C731        C732   1.408       .  A
C731        H735   1.084       .  S
C732        N736   1.437       .  S
N734        H737   1.046       .  S
N734        H738   1.045       .  S
N736        H739   1.046       .  S
N736        H740   1.045       .  S
C745        C746   1.418       .  A
C745        C750   1.405       .  A
C746        C747   1.409       .  A
C746        N751   1.438       .  S
C747        C748   1.401       .  A
C747        H752   1.084       .  S
C748        C753   1.485       .  S
C748        C749   1.411       .  A
C749        C750   1.408       .  A
C749        N754   1.439       .  S
C750        H755   1.083       .  S
N751        H771   1.046       .  S
N751        H772   1.046       .  S
C753        C756   1.398       .  A
C753        C760   1.410       .  A
N754        H769   1.046       .  S
N754        H770   1.044       .  S
C756        C757   1.407       .  A
C756        H761   1.084       .  S
C757        C758   1.420       .  A
C757        N762   1.438       .  S
C758        C759   1.410       .  A
C759        C760   1.410       .  A
C759        H763   1.083       .  S
C760        N764   1.439       .  S
N762        H765   1.046       .  S
N762        H766   1.046       .  S
N764        H767   1.046       .  S
N764        H768   1.043       .  S
C773        C774   1.420       .  A
C773        C778   1.408       .  A
C774        C775   1.405       .  A
C774        N779   1.433       .  S
C775        C776   1.398       .  A
C775        H780   1.084       .  S
C776        C781   1.483       .  S
C776        C777   1.409       .  A
C777        C778   1.409       .  A
C777        N782   1.438       .  S
C778        H783   1.083       .  S
N779        H799   1.046       .  S
N779        H800   1.045       .  S
C781        C784   1.397       .  A
C781        C788   1.410       .  A
N782        H797   1.046       .  S
N782        H798   1.046       .  S
C784        C785   1.402       .  A
C784        H789   1.084       .  S
C785        C786   1.420       .  A
C785        N790   1.433   1_556  S
C786        C787   1.408       .  A
C787        C788   1.411       .  A
C787        H791   1.083       .  S
C788        N792   1.437       .  S
N790        H793   1.045       .  S
N790        H794   1.046   1_554  S
N792        H795   1.046       .  S
N792        H796   1.045       .  S
C801        C802   1.418       .  A
C801        C806   1.412       .  A
C802        C803   1.413       .  A
C802        N807   1.437       .  S
C803        C804   1.405       .  A
C803        H808   1.084       .  S
C804        C809   1.487       .  S
C804        C805   1.405       .  A
C805        C806   1.402       .  A
C805        N810   1.438       .  S
C806        H811   1.083       .  S
N807        H827   1.045       .  S
N807        H828   1.046       .  S
C809        C812   1.404       .  A
C809        C816   1.405       .  A
N810        H825   1.046       .  S
N810        H826   1.045       .  S
C812        C813   1.410       .  A
C812        H817   1.084       .  S
C813        C814   1.416       .  A
C813        N818   1.437       .  S
C814        C815   1.412       .  A
C815        C816   1.405       .  A
C815        H819   1.083       .  S
C816        N820   1.438       .  S
N818        H821   1.046       .  S
N818        H822   1.046       .  S
N820        H823   1.046       .  S
N820        H824   1.046       .  S
C829        C830   1.413       .  A
C829        C834   1.406       .  A
C830        C831   1.411       .  A
C830        N835   1.437       .  S
C831        C832   1.408       .  A
C831        H836   1.084   1_554  S
C832        C837   1.492   1_454  S
C832        C833   1.409   1_455  A
C833        C834   1.403   1_655  A
C833        N838   1.438       .  S
C834        H839   1.084       .  S
N835        H855   1.045       .  S
N835        H856   1.046       .  S
C837        C840   1.407   1_655  A
C837        C844   1.408       .  A
N838        H853   1.045       .  S
N838        H854   1.046       .  S
C840        C841   1.411   1_455  A
C840        H845   1.083       .  S
C841        C842   1.415       .  A
C841        N846   1.437       .  S
C842        C843   1.410       .  A
C843        C844   1.404       .  A
C843        H847   1.083       .  S
C844        N848   1.438       .  S
N846        H849   1.046   1_655  S
N846        H850   1.046       .  S
N848        H851   1.046       .  S
N848        H852   1.046       .  S
C857        C858   1.416   1_455  A
C857        C862   1.401       .  A
C858        C859   1.401       .  A
C858        N863   1.440       .  S
C859        C860   1.401       .  A
C859        H864   1.083       .  S
C860        C865   1.490       .  S
C860        C861   1.417   1_655  A
C861        C862   1.408       .  A
C861        N866   1.438       .  S
C862        H867   1.084       .  S
N863        H883   1.046       .  S
N863        H884   1.046       .  S
C865        C868   1.406       .  A
C865        C872   1.415       .  A
N866        H881   1.046       .  S
N866        H882   1.046       .  S
C868        C869   1.405       .  A
C868        H873   1.083       .  S
C869        C870   1.408       .  A
C869        N874   1.438       .  S
C870        C871   1.402       .  A
C871        C872   1.405       .  A
C871        H875   1.084       .  S
C872        N876   1.438       .  S
N874        H877   1.046       .  S
N874        H878   1.045       .  S
N876        H879   1.046       .  S
N876        H880   1.046       .  S
C885        C886   1.413       .  A
C885        C890   1.410       .  A
C886        C887   1.403       .  A
C886        N891   1.432       .  S
C887        C888   1.401       .  A
C887        H892   1.084       .  S
C888        C893   1.482       .  S
C888        C889   1.408       .  A
C889        C890   1.407       .  A
C889        N894   1.438       .  S
C890        H895   1.083       .  S
N891        H911   1.045       .  S
N891        H912   1.046       .  S
C893        C896   1.400       .  A
C893        C900   1.413       .  A
N894        H909   1.046       .  S
N894        H910   1.045       .  S
C896        C897   1.404       .  A
C896        H901   1.084       .  S
C897        C898   1.418       .  A
C897        N902   1.433       .  S
C898        C899   1.406       .  A
C899        C900   1.399       .  A
C899        H903   1.083       .  S
C900        N904   1.433       .  S
N902        H905   1.046       .  S
N902        H906   1.046       .  S
N904        H907   1.044       .  S
N904        H908   1.046       .  S
C913        C914   1.420       .  A
C913        C918   1.411       .  A
C914        C915   1.398       .  A
C914        N919   1.432       .  S
C915        C916   1.401       .  A
C915        H920   1.084       .  S
C916        C921   1.484       .  S
C916        C917   1.408       .  A
C917        C918   1.406       .  A
C917        N922   1.438       .  S
C918        H923   1.083       .  S
N919        H939   1.044       .  S
N919        H940   1.046       .  S
C921        C924   1.402       .  A
C921        C928   1.411       .  A
N922        H937   1.046       .  S
N922        H938   1.045       .  S
C924        C925   1.407       .  A
C924        H929   1.084       .  S
C925        C926   1.415       .  A
C925        N930   1.438       .  S
C926        C927   1.405       .  A
C927        C928   1.403       .  A
C927        H931   1.084       .  S
C928        N932   1.438       .  S
N930        H933   1.046       .  S
N930        H934   1.045       .  S
N932        H935   1.045       .  S
N932        H936   1.046       .  S
C941        C942   1.411       .  A
C941        C946   1.408       .  A
C942        C943   1.410       .  A
C942        N947   1.437       .  S
C943        C944   1.407       .  A
C943        H948   1.083       .  S
C944        C949   1.488       .  S
C944        C945   1.408       .  A
C945        C946   1.402       .  A
C945        N950   1.438       .  S
C946        H951   1.084       .  S
N947        H967   1.046       .  S
N947        H968   1.046       .  S
C949        C952   1.407       .  A
C949        C956   1.407       .  A
N950        H965   1.046       .  S
N950        H966   1.046       .  S
C952        C953   1.410       .  A
C952        H957   1.084       .  S
C953        C954   1.412       .  A
C953        N958   1.437       .  S
C954        C955   1.408       .  A
C955        C956   1.403       .  A
C955        H959   1.083       .  S
C956        N960   1.438       .  S
N958        H961   1.046       .  S
N958        H962   1.046       .  S
N960        H963   1.045       .  S
N960        H964   1.046       .  S
C969        C970   1.413       .  A
C969        C974   1.409       .  A
C970        C971   1.412       .  A
C970        N975   1.437       .  S
C971        C972   1.409       .  A
C971        H976   1.084       .  S
C972        C977   1.487       .  S
C972        C973   1.411       .  A
C973        C974   1.391       .  A
C973        N978   1.434       .  S
C974        H979   1.083       .  S
N975        H995   1.044       .  S
N975        H996   1.047       .  S
C977        C980   1.403       .  A
C977        C984   1.413       .  A
N978        H993   1.043       .  S
N978        H994   1.045       .  S
C980        C981   1.405       .  A
C980        H985   1.082       .  S
C981        C982   1.409       .  A
C981        N986   1.436       .  S
C982        C983   1.402       .  A
C983        C984   1.405       .  A
C983        H987   1.084       .  S
C984        N988   1.438       .  S
N986        H989   1.046       .  S
N986        H990   1.045       .  S
N988        H991   1.046       .  S
N988        H992   1.046       .  S
C997        C998   1.413       .  A
C997       C1002   1.406       .  A
C998        C999   1.406       .  A
C998       N1003   1.438       .  S
C999       C1000   1.405       .  A
C999       H1004   1.084       .  S
C1000      C1005   1.486       .  S
C1000      C1001   1.410       .  A
C1001      C1002   1.403       .  A
C1001      N1006   1.438       .  S
C1002      H1007   1.084       .  S
N1003      H1023   1.046       .  S
N1003      H1024   1.046       .  S
C1005      C1008   1.401       .  A
C1005      C1012   1.413       .  A
N1006      H1021   1.046       .  S
N1006      H1022   1.045       .  S
C1008      C1009   1.400       .  A
C1008      H1013   1.084       .  S
C1009      C1010   1.415       .  A
C1009      N1014   1.433   1_455  S
C1010      C1011   1.404       .  A
C1011      C1012   1.407       .  A
C1011      H1015   1.083       .  S
C1012      N1016   1.438       .  S
N1014      H1017   1.046   1_655  S
N1014      H1018   1.046       .  S
N1016      H1019   1.046       .  S
N1016      H1020   1.046       .  S
C1025      C1026   1.416       .  A
C1025      C1030   1.406       .  A
C1026      C1027   1.408       .  A
C1026      N1031   1.438       .  S
C1027      C1028   1.402       .  A
C1027      H1032   1.084       .  S
C1028      C1033   1.488       .  S
C1028      C1029   1.410       .  A
C1029      C1030   1.408       .  A
C1029      N1034   1.438       .  S
C1030      H1035   1.084       .  S
N1031      H1051   1.045       .  S
N1031      H1052   1.046       .  S
C1033      C1036   1.404       .  A
C1033      C1040   1.407       .  A
N1034      H1049   1.046       .  S
N1034      H1050   1.046       .  S
C1036      C1037   1.410       .  A
C1036      H1041   1.084       .  S
C1037      C1038   1.417       .  A
C1037      N1042   1.437       .  S
C1038      C1039   1.411       .  A
C1039      C1040   1.406       .  A
C1039      H1043   1.083       .  S
C1040      N1044   1.438       .  S
N1042      H1045   1.046       .  S
N1042      H1046   1.046       .  S
N1044      H1047   1.046       .  S
N1044      H1048   1.046       .  S
C1053      C1054   1.418       .  A
C1053      C1058   1.409       .  A
C1054      C1055   1.405       .  A
C1054      N1059   1.438       .  S
C1055      C1056   1.401       .  A
C1055      H1060   1.084       .  S
C1056      C1061   1.481       .  S
C1056      C1057   1.407       .  A
C1057      C1058   1.405       .  A
C1057      N1062   1.438       .  S
C1058      H1063   1.083       .  S
N1059      H1079   1.045       .  S
N1059      H1080   1.046       .  S
C1061      C1064   1.400       .  A
C1061      C1068   1.409       .  A
N1062      H1077   1.046       .  S
N1062      H1078   1.046       .  S
C1064      C1065   1.405       .  A
C1064      H1069   1.084       .  S
C1065      C1066   1.417       .  A
C1065      N1070   1.438       .  S
C1066      C1067   1.405       .  A
C1067      C1068   1.404       .  A
C1067      H1071   1.083       .  S
C1068      N1072   1.438       .  S
N1070      H1073   1.046       .  S
N1070      H1074   1.046       .  S
N1072      H1075   1.046       .  S
N1072      H1076   1.046       .  S
C1081      C1082   1.414       .  A
C1081      C1086   1.410       .  A
C1082      C1083   1.414       .  A
C1082      N1087   1.437       .  S
C1083      C1084   1.408       .  A
C1083      H1088   1.084       .  S
C1084      C1089   1.499       .  S
C1084      C1085   1.409       .  A
C1085      C1086   1.410       .  A
C1085      N1090   1.438       .  S
C1086      H1091   1.084       .  S
N1087      H1107   1.045       .  S
N1087      H1108   1.046       .  S
C1089      C1092   1.409       .  A
C1089      C1096   1.409       .  A
N1090      H1105   1.046       .  S
N1090      H1106   1.046       .  S
C1092      C1093   1.418       .  A
C1092      H1097   1.083       .  S
C1093      C1094   1.416       .  A
C1093      N1098   1.437       .  S
C1094      C1095   1.409       .  A
C1095      C1096   1.407       .  A
C1095      H1099   1.084       .  S
C1096      N1100   1.438       .  S
N1098      H1101   1.046       .  S
N1098      H1102   1.046       .  S
N1100      H1103   1.045       .  S
N1100      H1104   1.046       .  S
C1109      C1110   1.409       .  A
C1109      C1114   1.400       .  A
C1110      C1111   1.405       .  A
C1110      N1115   1.438       .  S
C1111      C1112   1.407       .  A
C1111      H1116   1.083       .  S
C1112      C1117   1.495       .  S
C1112      C1113   1.418       .  A
C1113      C1114   1.405       .  A
C1113      N1118   1.438       .  S
C1114      H1119   1.084       .  S
N1115      H1135   1.045       .  S
N1115      H1136   1.046       .  S
C1117      C1120   1.400       .  A
C1117      C1124   1.419       .  A
N1118      H1133   1.046       .  S
N1118      H1134   1.045       .  S
C1120      C1121   1.396       .  A
C1120      H1125   1.083       .  S
C1121      C1122   1.414       .  A
C1121      N1126   1.432       .  S
C1122      C1123   1.404       .  A
C1123      C1124   1.413       .  A
C1123      H1127   1.083       .  S
C1124      N1128   1.437       .  S
N1126      H1129   1.045       .  S
N1126      H1130   1.045       .  S
N1128      H1131   1.046       .  S
N1128      H1132   1.046       .  S
C1137      C1138   1.420       .  A
C1137      C1142   1.408       .  A
C1138      C1139   1.403       .  A
C1138      N1143   1.433       .  S
C1139      C1140   1.398       .  A
C1139      H1144   1.084       .  S
C1140      C1145   1.485       .  S
C1140      C1141   1.411       .  A
C1141      C1142   1.413       .  A
C1141      N1146   1.438       .  S
C1142      H1147   1.083       .  S
N1143      H1163   1.046       .  S
N1143      H1164   1.046       .  S
C1145      C1148   1.399       .  A
C1145      C1152   1.413       .  A
N1146      H1161   1.045       .  S
N1146      H1162   1.045       .  S
C1148      C1149   1.402       .  A
C1148      H1153   1.084       .  S
C1149      C1150   1.414       .  A
C1149      N1154   1.433       .  S
C1150      C1151   1.406       .  A
C1151      C1152   1.412       .  A
C1151      H1155   1.084       .  S
C1152      N1156   1.437       .  S
N1154      H1157   1.046       .  S
N1154      H1158   1.046       .  S
N1156      H1159   1.045       .  S
N1156      H1160   1.045       .  S
C1165      C1166   1.417       .  A
C1165      C1170   1.410       .  A
C1166      C1167   1.406       .  A
C1166      N1171   1.438       .  S
C1167      C1168   1.401       .  A
C1167      H1172   1.084       .  S
C1168      C1173   1.482       .  S
C1168      C1169   1.407       .  A
C1169      C1170   1.405       .  A
C1169      N1174   1.438       .  S
C1170      H1175   1.083       .  S
N1171      H1191   1.046       .  S
N1171      H1192   1.046       .  S
C1173      C1176   1.400       .  A
C1173      C1180   1.409       .  A
N1174      H1189   1.046       .  S
N1174      H1190   1.046       .  S
C1176      C1177   1.406       .  A
C1176      H1181   1.084       .  S
C1177      C1178   1.419       .  A
C1177      N1182   1.438       .  S
C1178      C1179   1.405       .  A
C1179      C1180   1.405       .  A
C1179      H1183   1.083       .  S
C1180      N1184   1.438       .  S
N1182      H1185   1.046       .  S
N1182      H1186   1.046       .  S
N1184      H1187   1.046       .  S
N1184      H1188   1.046       .  S
C1193      C1194   1.418       .  A
C1193      C1198   1.410       .  A
C1194      C1195   1.405       .  A
C1194      N1199   1.432       .  S
C1195      C1196   1.405       .  A
C1195      H1200   1.084       .  S
C1196      C1201   1.491       .  S
C1196      C1197   1.409       .  A
C1197      C1198   1.407       .  A
C1197      N1202   1.438       .  S
C1198      H1203   1.084       .  S
N1199      H1219   1.045       .  S
N1199      H1220   1.044       .  S
C1201      C1204   1.401       .  A
C1201      C1208   1.413       .  A
N1202      H1217   1.046       .  S
N1202      H1218   1.046       .  S
C1204      C1205   1.404       .  A
C1204      H1209   1.084       .  S
C1205      C1206   1.416       .  A
C1205      N1210   1.433       .  S
C1206      C1207   1.406       .  A
C1207      C1208   1.412       .  A
C1207      H1211   1.083       .  S
C1208      N1212   1.437       .  S
N1210      H1213   1.046       .  S
N1210      H1214   1.046       .  S
N1212      H1215   1.045       .  S
N1212      H1216   1.046       .  S
C1221      C1222   1.418       .  A
C1221      C1226   1.407       .  A
C1222      C1223   1.410       .  A
C1222      N1227   1.438       .  S
C1223      C1224   1.403       .  A
C1223      H1228   1.084       .  S
C1224      C1229   1.493       .  S
C1224      C1225   1.411       .  A
C1225      C1226   1.409       .  A
C1225      N1230   1.438       .  S
C1226      H1231   1.083       .  S
N1227      H1247   1.046       .  S
N1227      H1248   1.046       .  S
C1229      C1232   1.404       .  A
C1229      C1236   1.409       .  A
N1230      H1245   1.046       .  S
N1230      H1246   1.046       .  S
C1232      C1233   1.411       .  A
C1232      H1237   1.084       .  S
C1233      C1234   1.417       .  A
C1233      N1238   1.437       .  S
C1234      C1235   1.411       .  A
C1235      C1236   1.409       .  A
C1235      H1239   1.083   1_545  S
C1236      N1240   1.438       .  S
N1238      H1241   1.046       .  S
N1238      H1242   1.046       .  S
N1240      H1243   1.046       .  S
N1240      H1244   1.046       .  S
C1249      C1250   1.416       .  A
C1249      C1254   1.409       .  A
C1250      C1251   1.409       .  A
C1250      N1255   1.438       .  S
C1251      C1252   1.404       .  A
C1251      H1256   1.084       .  S
C1252      C1257   1.485       .  S
C1252      C1253   1.408       .  A
C1253      C1254   1.404       .  A
C1253      N1258   1.438       .  S
C1254      H1259   1.084       .  S
N1255      H1275   1.046       .  S
N1255      H1276   1.046       .  S
C1257      C1260   1.400       .  A
C1257      C1264   1.412       .  A
N1258      H1273   1.046       .  S
N1258      H1274   1.045       .  S
C1260      C1261   1.402       .  A
C1260      H1265   1.084       .  S
C1261      C1262   1.414       .  A
C1261      N1266   1.433       .  S
C1262      C1263   1.405       .  A
C1263      C1264   1.409       .  A
C1263      H1267   1.084       .  S
C1264      N1268   1.437       .  S
N1266      H1269   1.045       .  S
N1266      H1270   1.045       .  S
N1268      H1271   1.046       .  S
N1268      H1272   1.046       .  S
C1277      C1278   1.413       .  A
C1277      C1282   1.403       .  A
C1278      C1279   1.404       .  A
C1278      N1283   1.439       .  S
C1279      C1280   1.401       .  A
C1279      H1284   1.084       .  S
C1280      C1285   1.490       .  S
C1280      C1281   1.414       .  A
C1281      C1282   1.412       .  A
C1281      N1286   1.437       .  S
C1282      H1287   1.084       .  S
N1283      H1303   1.046       .  S
N1283      H1304   1.046       .  S
C1285      C1288   1.399       .  A
C1285      C1292   1.413       .  A
N1286      H1301   1.046       .  S
N1286      H1302   1.046       .  S
C1288      C1289   1.404       .  A
C1288      H1293   1.084       .  S
C1289      C1290   1.421       .  A
C1289      N1294   1.433       .  S
C1290      C1291   1.405       .  A
C1291      C1292   1.410       .  A
C1291      H1295   1.083       .  S
C1292      N1296   1.437       .  S
N1294      H1297   1.046       .  S
N1294      H1298   1.046       .  S
N1296      H1299   1.045       .  S
N1296      H1300   1.046       .  S
C1305      C1306   1.405       .  A
C1305      C1310   1.400       .  A
C1306      C1307   1.401       .  A
C1306      N1311   1.433       .  S
C1307      C1308   1.406       .  A
C1307      H1312   1.084       .  S
C1308      C1313   1.490       .  S
C1308      C1309   1.416       .  A
C1309      C1310   1.406       .  A
C1309      N1314   1.438       .  S
C1310      H1315   1.083       .  S
N1311      H1331   1.046       .  S
N1311      H1332   1.046       .  S
C1313      C1316   1.400       .  A
C1313      C1320   1.417       .  A
N1314      H1329   1.046       .  S
N1314      H1330   1.046       .  S
C1316      C1317   1.397       .  A
C1316      H1321   1.084       .  S
C1317      C1318   1.415       .  A
C1317      N1322   1.434       .  S
C1318      C1319   1.403       .  A
C1319      C1320   1.410       .  A
C1319      H1323   1.084       .  S
C1320      N1324   1.437       .  S
N1322      H1325   1.046       .  S
N1322      H1326   1.046       .  S
N1324      H1327   1.046       .  S
N1324      H1328   1.045       .  S
C1333      C1334   1.416       .  A
C1333      C1338   1.408       .  A
C1334      C1335   1.407       .  A
C1334      N1339   1.438       .  S
C1335      C1336   1.404       .  A
C1335      H1340   1.084       .  S
C1336      C1341   1.489       .  S
C1336      C1337   1.409       .  A
C1337      C1338   1.406       .  A
C1337      N1342   1.438       .  S
C1338      H1343   1.084       .  S
N1339      H1359   1.046       .  S
N1339      H1360   1.046       .  S
C1341      C1344   1.407       .  A
C1341      C1348   1.409       .  A
N1342      H1357   1.045       .  S
N1342      H1358   1.046       .  S
C1344      C1345   1.410       .  A
C1344      H1349   1.083       .  S
C1345      C1346   1.411       .  A
C1345      N1350   1.437       .  S
C1346      C1347   1.408       .  A
C1347      C1348   1.403       .  A
C1347      H1351   1.084       .  S
C1348      N1352   1.438       .  S
N1350      H1353   1.046       .  S
N1350      H1354   1.045       .  S
N1352      H1355   1.045       .  S
N1352      H1356   1.046       .  S
C1361      C1362   1.417       .  A
C1361      C1366   1.405       .  A
C1362      C1363   1.403       .  A
C1362      N1367   1.439       .  S
C1363      C1364   1.400       .  A
C1363      H1368   1.084       .  S
C1364      C1369   1.486       .  S
C1364      C1365   1.410       .  A
C1365      C1366   1.407       .  A
C1365      N1370   1.432       .  S
C1366      H1371   1.084       .  S
N1367      H1387   1.046       .  S
N1367      H1388   1.046       .  S
C1369      C1372   1.403       .  A
C1369      C1376   1.419       .  A
N1370      H1385   1.045       .  S
N1370      H1386   1.046       .  S
C1372      C1373   1.404       .  A
C1372      H1377   1.084       .  S
C1373      C1374   1.414       .  A
C1373      N1378   1.438       .  S
C1374      C1375   1.405       .  A
C1375      C1376   1.404       .  A
C1375      H1379   1.084       .  S
C1376      N1380   1.439       .  S
N1378      H1381   1.046       .  S
N1378      H1382   1.046       .  S
N1380      H1383   1.045       .  S
N1380      H1384   1.042       .  S
C1389      C1390   1.413       .  A
C1389      C1394   1.411       .  A
C1390      C1391   1.410       .  A
C1390      N1395   1.437       .  S
C1391      C1392   1.404       .  A
C1391      H1396   1.084       .  S
C1392      C1397   1.483       .  S
C1392      C1393   1.405       .  A
C1393      C1394   1.403       .  A
C1393      N1398   1.438       .  S
C1394      H1399   1.083       .  S
N1395      H1415   1.045   1_556  S
N1395      H1416   1.046       .  S
C1397      C1400   1.404       .  A
C1397      C1404   1.405       .  A
N1398      H1413   1.046       .  S
N1398      H1414   1.046       .  S
C1400      C1401   1.405       .  A
C1400      H1405   1.084       .  S
C1401      C1402   1.413       .  A
C1401      N1406   1.432       .  S
C1402      C1403   1.412       .  A
C1403      C1404   1.405       .  A
C1403      H1407   1.083       .  S
C1404      N1408   1.438       .  S
N1406      H1409   1.046       .  S
N1406      H1410   1.046       .  S
N1408      H1411   1.046       .  S
N1408      H1412   1.046       .  S
C1417      C1418   1.410       .  A
C1417      C1422   1.407       .  A
C1418      C1419   1.411   1_455  A
C1418      N1423   1.437   1_455  S
C1419      C1420   1.409   1_655  A
C1419      H1424   1.083       .  S
C1420      C1425   1.496   1_446  S
C1420      C1421   1.411   1_545  A
C1421      C1422   1.406   1_565  A
C1421      N1426   1.438       .  S
C1422      H1427   1.084   1_545  S
N1423      H1443   1.046       .  S
N1423      H1444   1.046       .  S
C1425      C1428   1.409       .  A
C1425      C1432   1.408   1_565  A
N1426      H1441   1.046       .  S
N1426      H1442   1.045   1_556  S
C1428      C1429   1.414       .  A
C1428      H1433   1.083   1_554  S
C1429      C1430   1.414       .  A
C1429      N1434   1.437       .  S
C1430      C1431   1.411       .  A
C1431      C1432   1.404   1_565  A
C1431      H1435   1.083       .  S
C1432      N1436   1.439       .  S
N1434      H1437   1.046       .  S
N1434      H1438   1.045       .  S
N1436      H1439   1.046       .  S
N1436      H1440   1.046   1_655  S
C1445      C1446   1.412       .  A
C1445      C1450   1.406       .  A
C1446      C1447   1.409   1_545  A
C1446      N1451   1.437   1_545  S
C1447      C1448   1.405       .  A
C1447      H1452   1.084       .  S
C1448      C1453   1.477       .  S
C1448      C1449   1.407   1_565  A
C1449      C1450   1.393       .  A
C1449      N1454   1.433   1_455  S
C1450      H1455   1.085       .  S
N1451      H1471   1.044       .  S
N1451      H1472   1.046       .  S
C1453      C1456   1.408   1_455  A
C1453      C1460   1.401       .  A
N1454      H1469   1.045       .  S
N1454      H1470   1.046       .  S
C1456      C1457   1.412       .  A
C1456      H1461   1.083       .  S
C1457      C1458   1.409       .  A
C1457      N1462   1.436       .  S
C1458      C1459   1.411       .  A
C1459      C1460   1.395   1_655  A
C1459      H1463   1.083   1_655  S
C1460      N1464   1.439   1_565  S
N1462      H1465   1.046       .  S
N1462      H1466   1.046       .  S
N1464      H1467   1.046   1_545  S
N1464      H1468   1.046       .  S
C1473      C1474   1.414       .  A
C1473      C1478   1.405       .  A
C1474      C1475   1.403       .  A
C1474      N1479   1.439       .  S
C1475      C1476   1.401       .  A
C1475      H1480   1.084       .  S
C1476      C1481   1.484       .  S
C1476      C1477   1.411       .  A
C1477      C1478   1.408       .  A
C1477      N1482   1.437       .  S
C1478      H1483   1.084       .  S
N1479      H1499   1.046       .  S
N1479      H1500   1.046       .  S
C1481      C1484   1.404       .  A
C1481      C1488   1.406       .  A
N1482      H1497   1.046       .  S
N1482      H1498   1.046       .  S
C1484      C1485   1.410       .  A
C1484      H1489   1.084       .  S
C1485      C1486   1.416       .  A
C1485      N1490   1.437       .  S
C1486      C1487   1.411       .  A
C1487      C1488   1.402       .  A
C1487      H1491   1.083   1_655  S
C1488      N1492   1.438       .  S
N1490      H1493   1.046       .  S
N1490      H1494   1.045       .  S
N1492      H1495   1.045       .  S
N1492      H1496   1.046       .  S
C1501      C1502   1.416       .  A
C1501      C1506   1.411       .  A
C1502      C1503   1.406       .  A
C1502      N1507   1.437       .  S
C1503      C1504   1.400       .  A
C1503      H1508   1.084       .  S
C1504      C1509   1.475       .  S
C1504      C1505   1.403       .  A
C1505      C1506   1.403       .  A
C1505      N1510   1.438       .  S
C1506      H1511   1.083       .  S
N1507      H1527   1.046       .  S
N1507      H1528   1.045       .  S
C1509      C1512   1.401       .  A
C1509      C1516   1.403       .  A
N1510      H1525   1.046       .  S
N1510      H1526   1.045       .  S
C1512      C1513   1.406       .  A
C1512      H1517   1.084       .  S
C1513      C1514   1.416       .  A
C1513      N1518   1.438       .  S
C1514      C1515   1.411       .  A
C1515      C1516   1.403       .  A
C1515      H1519   1.083       .  S
C1516      N1520   1.438       .  S
N1518      H1521   1.046       .  S
N1518      H1522   1.046       .  S
N1520      H1523   1.046       .  S
N1520      H1524   1.045       .  S
C1529      C1530   1.419       .  A
C1529      C1534   1.411       .  A
C1530      C1531   1.407       .  A
C1530      N1535   1.432       .  S
C1531      C1532   1.406       .  A
C1531      H1536   1.084       .  S
C1532      C1537   1.494       .  S
C1532      C1533   1.408       .  A
C1533      C1534   1.407       .  A
C1533      N1538   1.438       .  S
C1534      H1539   1.083       .  S
N1535      H1555   1.045       .  S
N1535      H1556   1.045       .  S
C1537      C1540   1.407       .  A
C1537      C1544   1.408       .  A
N1538      H1553   1.046       .  S
N1538      H1554   1.046       .  S
C1540      C1541   1.413       .  A
C1540      H1545   1.083       .  S
C1541      C1542   1.414       .  A
C1541      N1546   1.437   1_554  S
C1542      C1543   1.410       .  A
C1543      C1544   1.407       .  A
C1543      H1547   1.082       .  S
C1544      N1548   1.438       .  S
N1546      H1549   1.046   1_556  S
N1546      H1550   1.046       .  S
N1548      H1551   1.046       .  S
N1548      H1552   1.045       .  S
C1557      C1558   1.410       .  A
C1557      C1562   1.406       .  A
C1558      C1559   1.411       .  A
C1558      N1563   1.437       .  S
C1559      C1560   1.405       .  A
C1559      H1564   1.084       .  S
C1560      C1565   1.484       .  S
C1560      C1561   1.408       .  A
C1561      C1562   1.406       .  A
C1561      N1566   1.438   1_565  S
C1562      H1567   1.084       .  S
N1563      H1583   1.045       .  S
N1563      H1584   1.046       .  S
C1565      C1568   1.400       .  A
C1565      C1572   1.411   1_565  A
N1566      H1581   1.046       .  S
N1566      H1582   1.045       .  S
C1568      C1569   1.407       .  A
C1568      H1573   1.084       .  S
C1569      C1570   1.416   1_565  A
C1569      N1574   1.438       .  S
C1570      C1571   1.404       .  A
C1571      C1572   1.408       .  A
C1571      H1575   1.084       .  S
C1572      N1576   1.438       .  S
N1574      H1577   1.046       .  S
N1574      H1578   1.046       .  S
N1576      H1579   1.046       .  S
N1576      H1580   1.045       .  S
C1585      C1586   1.407       .  A
C1585      C1590   1.401       .  A
C1586      C1587   1.400   1_565  A
C1586      N1591   1.438   1_565  S
C1587      C1588   1.404   1_545  A
C1587      H1592   1.083       .  S
C1588      C1593   1.479   1_564  S
C1588      C1589   1.412       .  A
C1589      C1590   1.400       .  A
C1589      N1594   1.438   1_554  S
C1590      H1595   1.084       .  S
N1591      H1611   1.045       .  S
N1591      H1612   1.046       .  S
C1593      C1596   1.407       .  A
C1593      C1600   1.407       .  A
N1594      H1609   1.046   1_556  S
N1594      H1610   1.045       .  S
C1596      C1597   1.406       .  A
C1596      H1601   1.084   1_546  S
C1597      C1598   1.412       .  A
C1597      N1602   1.438       .  S
C1598      C1599   1.408       .  A
C1599      C1600   1.394       .  A
C1599      H1603   1.083       .  S
C1600      N1604   1.439       .  S
N1602      H1605   1.046   1_545  S
N1602      H1606   1.046   1_545  S
N1604      H1607   1.046       .  S
N1604      H1608   1.046       .  S
C1613      C1614   1.416       .  A
C1613      C1618   1.409       .  A
C1614      C1615   1.408       .  A
C1614      N1619   1.437       .  S
C1615      C1616   1.404       .  A
C1615      H1620   1.083       .  S
C1616      C1621   1.489       .  S
C1616      C1617   1.409       .  A
C1617      C1618   1.406       .  A
C1617      N1622   1.438       .  S
C1618      H1623   1.083       .  S
N1619      H1639   1.046       .  S
N1619      H1640   1.046       .  S
C1621      C1624   1.405       .  A
C1621      C1628   1.409       .  A
N1622      H1637   1.046       .  S
N1622      H1638   1.046       .  S
C1624      C1625   1.407       .  A
C1624      H1629   1.084       .  S
C1625      C1626   1.412       .  A
C1625      N1630   1.437       .  S
C1626      C1627   1.410       .  A
C1627      C1628   1.406       .  A
C1627      H1631   1.083       .  S
C1628      N1632   1.438       .  S
N1630      H1633   1.046       .  S
N1630      H1634   1.046       .  S
N1632      H1635   1.046       .  S
N1632      H1636   1.046       .  S
C1641      C1642   1.413       .  A
C1641      C1646   1.410       .  A
C1642      C1643   1.406       .  A
C1642      N1647   1.438       .  S
C1643      C1644   1.404       .  A
C1643      H1648   1.084       .  S
C1644      C1649   1.480       .  S
C1644      C1645   1.405       .  A
C1645      C1646   1.402       .  A
C1645      N1650   1.438       .  S
C1646      H1651   1.083       .  S
N1647      H1667   1.046       .  S
N1647      H1668   1.046       .  S
C1649      C1652   1.404       .  A
C1649      C1656   1.405       .  A
N1650      H1665   1.046       .  S
N1650      H1666   1.045       .  S
C1652      C1653   1.405       .  A
C1652      H1657   1.084       .  S
C1653      C1654   1.413       .  A
C1653      N1658   1.432       .  S
C1654      C1655   1.410       .  A
C1655      C1656   1.401       .  A
C1655      H1659   1.083       .  S
C1656      N1660   1.438       .  S
N1658      H1661   1.046       .  S
N1658      H1662   1.045       .  S
N1660      H1663   1.045       .  S
N1660      H1664   1.046       .  S
C1669      C1670   1.417       .  A
C1669      C1674   1.410       .  A
C1670      C1671   1.410       .  A
C1670      N1675   1.437       .  S
C1671      C1672   1.403       .  A
C1671      H1676   1.084       .  S
C1672      C1677   1.482       .  S
C1672      C1673   1.405       .  A
C1673      C1674   1.401       .  A
C1673      N1678   1.438       .  S
C1674      H1679   1.083       .  S
N1675      H1695   1.046       .  S
N1675      H1696   1.046       .  S
C1677      C1680   1.401       .  A
C1677      C1684   1.411       .  A
N1678      H1693   1.046       .  S
N1678      H1694   1.046       .  S
C1680      C1681   1.400       .  A
C1680      H1685   1.084       .  S
C1681      C1682   1.409       .  A
C1681      N1686   1.433       .  S
C1682      C1683   1.406       .  A
C1683      C1684   1.409       .  A
C1683      H1687   1.084       .  S
C1684      N1688   1.438       .  S
N1686      H1689   1.046       .  S
N1686      H1690   1.046       .  S
N1688      H1691   1.046       .  S
N1688      H1692   1.046       .  S
