geometry optimzed in LAMMPS
_audit_creation_date              2020-12-01 
_audit_creation_method            'lammps2cif' 
_symmetry_space_group_name_H-M    'P1' 
_symmetry_Int_Tables_number       1 
_symmetry_cell_setting            triclinic 
loop_ 
_symmetry_equiv_pos_as_xyz 
  x,y,z 
_cell_length_a                    40.35977559 
_cell_length_b                    40.36014331025545 
_cell_length_c                    36.02566717720248 
_cell_angle_alpha                 90.01586336711435 
_cell_angle_beta                  90.01650571399757 
_cell_angle_gamma                 90.0306113270532 
loop_ 
_atom_site_label 
_atom_site_type_symbol 
_atom_site_fract_x 
_atom_site_fract_y 
_atom_site_fract_z 
_atom_site_charge 
O1          O  0.96360901  0.49865185  0.29899629    -0.72500
O2          O  0.99745166  0.46260952  0.20294478    -0.73500
O3          O  0.01121890  0.45115248  0.27853057    -0.62100
O4          O  0.94984978  0.50998431  0.22330825    -0.70500
O5          O  0.98837622  0.54940982  0.22252742    -0.70100
O6          O  0.04973647  0.49058779  0.27772030    -0.61400
O7          O  0.03600385  0.50195295  0.20207372    -0.73900
O8          O  0.00220460  0.53795147  0.29804804    -0.72600
Cu9        Cu  0.97915363  0.47920354  0.25100868     1.04600
Cu10       Cu  0.02045232  0.52135853  0.25001921     1.04300
C11         C  0.97751272  0.52392196  0.31360492     0.93700
C12         C  0.02215012  0.47668138  0.18743019     0.92800
C13         C  0.04001055  0.46171893  0.28706483     0.84900
C14         C  0.95956358  0.53887698  0.21403214     0.91200
N15         N  0.93844747  0.21943487  0.42204959    -0.26900
N16         N  0.94000530  0.18798218  0.43223886    -0.34700
C17         C  0.96739071  0.18289243  0.45263430     0.01500
C18         C  0.98407962  0.21249710  0.45607919     0.07500
C19         C  0.96525163  0.23523876  0.43612527    -0.05600
H20         H  0.97402733  0.15944748  0.46507867     0.08200
H21         H  0.97010671  0.26147226  0.43320824     0.09400
Cu22       Cu  0.90254134  0.15403067  0.42450334     0.44200
Cu23       Cu  0.89805053  0.23815149  0.39086014     0.42000
Cu24       Cu  0.82527136  0.18316278  0.38813841     0.43900
N25         N  0.85875464  0.12857660  0.43137690    -0.34300
N26         N  0.82983406  0.13947386  0.41926211    -0.28500
C27         C  0.80583495  0.11972113  0.43302128    -0.04600
C28         C  0.82050169  0.09576363  0.45522129     0.07600
C29         C  0.85405866  0.10191930  0.45309808     0.01400
H30         H  0.77957276  0.12360576  0.42893216     0.09000
H31         H  0.87365872  0.08873607  0.46716788     0.08100
N32         N  0.82877034  0.22767273  0.35823796    -0.35700
N33         N  0.85498273  0.24747443  0.35880447    -0.27900
C34         C  0.85018970  0.27194787  0.33372994    -0.03100
C35         C  0.81937055  0.26782099  0.31706970     0.05500
C36         C  0.80681552  0.23922533  0.33309074     0.03600
H37         H  0.86859419  0.29034554  0.32652063     0.08700
H38         H  0.78428322  0.22650796  0.32520299     0.07500
N39         N  0.93995624  0.21932345  0.07621580    -0.26900
N40         N  0.94110458  0.18806775  0.06523307    -0.34700
C41         C  0.96779060  0.18337252  0.04370221     0.01500
C42         C  0.98427353  0.21306166  0.04044388     0.07500
C43         C  0.96633332  0.23538358  0.06173683    -0.05600
H44         H  0.97411212  0.16015433  0.03053444     0.08200
H45         H  0.97137893  0.26152707  0.06523787     0.09400
Cu46       Cu  0.90387530  0.15404793  0.07296311     0.44200
Cu47       Cu  0.90051877  0.23805453  0.10799461     0.42000
Cu48       Cu  0.82638686  0.18570091  0.10546460     0.43900
N49         N  0.85981974  0.12976683  0.06419847    -0.34300
N50         N  0.83082950  0.14178766  0.07463330    -0.28500
C51         C  0.80680543  0.12233269  0.06044577    -0.04600
C52         C  0.82156142  0.09737119  0.03975805     0.07600
C53         C  0.85517260  0.10262226  0.04319122     0.01400
H54         H  0.78053714  0.12671998  0.06373490     0.09000
H55         H  0.87488660  0.08827101  0.03083716     0.08100
N56         N  0.83022794  0.22930275  0.13701237    -0.35700
N57         N  0.85720415  0.24797850  0.13847832    -0.27900
C58         C  0.85261855  0.27188541  0.16420485    -0.03100
C59         C  0.82110567  0.26860902  0.17918049     0.05500
C60         C  0.80786132  0.24110779  0.16151157     0.03600
H61         H  0.87149313  0.28928806  0.17287552     0.08700
H62         H  0.78450404  0.22922800  0.16784253     0.07500
C63         C  0.04795727  0.22593430  0.03467313     0.45900
H64         H  0.04775963  0.22689341  0.06551133    -0.03200
C65         C  0.04843936  0.22401064  0.46229802     0.45900
H66         H  0.04885707  0.22329163  0.43145154    -0.03200
C67         C  0.06007280  0.25797072  0.01657900    -0.16900
C68         C  0.07098787  0.19911201  0.01873673    -0.16600
C69         C  0.01381727  0.21932579  0.01736989    -0.17000
C70         C  0.06064841  0.25679657  0.47853943    -0.17000
C71         C  0.07120152  0.19809167  0.48043814    -0.16500
C72         C  0.01392713  0.21853647  0.47921302    -0.16800
C73         C  0.78273356  0.30875051  0.28183331     0.02700
C74         C  0.80735142  0.28367714  0.28219120     0.02700
C75         C  0.82010139  0.27215390  0.24811091    -0.17900
C76         C  0.80841575  0.28421101  0.21376453     0.02700
C77         C  0.78414107  0.30957625  0.21343325     0.02700
C78         C  0.77203857  0.32173471  0.24750905    -0.17900
H79         H  0.75300191  0.34069245  0.24728032     0.04700
H80         H  0.83856852  0.25264151  0.24829066     0.04700
N81         N  0.71691618  0.44039785  0.41894368    -0.26900
N82         N  0.68562351  0.44193242  0.42971818    -0.34700
C83         C  0.68087427  0.46937986  0.45009801     0.01500
C84         C  0.71056991  0.48602719  0.45290939     0.07500
C85         C  0.73296333  0.46720720  0.43256384    -0.05600
H86         H  0.65767009  0.47601387  0.46309378     0.08200
H87         H  0.75918564  0.47193910  0.42927704     0.09400
Cu88       Cu  0.65180463  0.40408985  0.42327060     0.44200
Cu89       Cu  0.73540705  0.39991083  0.38821025     0.42000
Cu90       Cu  0.68067776  0.32698844  0.38581645     0.43900
N91         N  0.62713440  0.35993089  0.43119826    -0.34300
N92         N  0.63791639  0.33114232  0.41856380    -0.28500
C93         C  0.61877558  0.30692198  0.43291797    -0.04600
C94         C  0.59535835  0.32128361  0.45607247     0.07600
C95         C  0.60113676  0.35491526  0.45382936     0.01400
H96         H  0.62263473  0.28071696  0.42837165     0.09000
H97         H  0.58797713  0.37438975  0.46812282     0.08100
N98         N  0.72531142  0.33052639  0.35618326    -0.35700
N99         N  0.74506534  0.35676223  0.35689258    -0.27900
C100        C  0.77001952  0.35184605  0.33251402    -0.03100
C101        C  0.76627751  0.32089970  0.31617678     0.05500
C102        C  0.73738437  0.30839466  0.33156613     0.03600
H103        H  0.78852340  0.37022637  0.32557379     0.08700
H104        H  0.72491144  0.28573099  0.32365561     0.07500
N105        N  0.71972218  0.44111693  0.07345913    -0.26900
N106        N  0.68840418  0.44153433  0.06260214    -0.34700
C107        C  0.68293770  0.46802514  0.04094545     0.01500
C108        C  0.71213707  0.48532488  0.03740159     0.07500
C109        C  0.73501324  0.46790536  0.05870790    -0.05600
H110        H  0.65942416  0.47380805  0.02814107     0.08200
H111        H  0.76099842  0.47372310  0.06218681     0.09400
Cu112      Cu  0.65491600  0.40399877  0.07152837     0.44200
Cu113      Cu  0.73911627  0.40202524  0.10610951     0.42000
Cu114      Cu  0.68632901  0.32739477  0.10501967     0.43900
N115        N  0.62994635  0.36007395  0.06434737    -0.34300
N116        N  0.64193114  0.33118057  0.07510333    -0.28500
C117        C  0.62225246  0.30703431  0.06152914    -0.04600
C118        C  0.59716190  0.32163742  0.04087300     0.07600
C119        C  0.60257453  0.35527202  0.04377814     0.01400
H120        H  0.62669559  0.28078614  0.06496783     0.09000
H121        H  0.58826573  0.37489083  0.03120825     0.08100
N122        N  0.73012855  0.33166099  0.13600273    -0.35700
N123        N  0.74888566  0.35861206  0.13735296    -0.27900
C124        C  0.77263748  0.35393423  0.16333866    -0.03100
C125        C  0.76914365  0.32241420  0.17847783     0.05500
C126        C  0.74171523  0.30931194  0.16063181     0.03600
H127        H  0.79007930  0.37274300  0.17208827     0.08700
H128        H  0.72961237  0.28608550  0.16704101     0.07500
C129        C  0.72416135  0.54992427  0.45933756     0.45900
H130        H  0.72420589  0.55027846  0.42848563    -0.03200
C131        C  0.72447427  0.54932462  0.03176510     0.45900
H132        H  0.72473338  0.54925860  0.06262471    -0.03200
C133        C  0.75703948  0.56093702  0.47652242    -0.16900
C134        C  0.69856476  0.57347935  0.47683249    -0.16600
C135        C  0.71714808  0.51559096  0.47618867    -0.17000
C136        C  0.75709831  0.56059601  0.01455862    -0.17000
C137        C  0.69882899  0.57324038  0.01511624    -0.16500
C138        C  0.71748637  0.51528871  0.01438977    -0.16800
N139        N  0.06833130  0.33774197  0.06161156    -0.26900
N140        N  0.09965078  0.32810430  0.06157939    -0.34700
C141        C  0.10129015  0.29706183  0.04813058     0.01500
C142        C  0.06963651  0.28719468  0.03850393     0.07500
C143        C  0.04934341  0.31343793  0.04752401    -0.05600
H144        H  0.12405912  0.28358444  0.04347300     0.08200
H145        H  0.02293737  0.31528599  0.04277303     0.09400
Cu146      Cu  0.13924297  0.35995462  0.07161921     0.44200
Cu147      Cu  0.05287854  0.38359643  0.07999345     0.42000
Cu148      Cu  0.11637622  0.44560714  0.08301342     0.43900
N149        N  0.17230559  0.39926707  0.06610982    -0.34300
N150        N  0.16308578  0.43064479  0.06791677    -0.28500
C151        C  0.18805593  0.45006353  0.05639389    -0.04600
C152        C  0.21436284  0.43001556  0.04707393     0.07600
C153        C  0.20371126  0.39797105  0.05373346     0.01400
H154        H  0.18636223  0.47660718  0.05265190     0.09000
H155        H  0.21674484  0.37533618  0.04708924     0.08100
N156        N  0.07161150  0.45040431  0.10946856    -0.35700
N157        N  0.04827284  0.42745209  0.10889476    -0.27900
C158        C  0.02563450  0.43452086  0.13505422    -0.03100
C159        C  0.03547218  0.46318127  0.15291720     0.05500
C160        C  0.06450663  0.47274843  0.13583816     0.03600
H161        H  0.00531575  0.41841614  0.14271425     0.08700
H162        H  0.08092723  0.49255527  0.14432759     0.07500
N163        N  0.17719973  0.41979224  0.42182296    -0.26900
N164        N  0.18119245  0.39124640  0.43911733    -0.34700
C165        C  0.20513177  0.39437949  0.46455405     0.01500
C166        C  0.21630713  0.42659689  0.46365357     0.07500
C167        C  0.19866921  0.44203914  0.43579791    -0.05600
H168        H  0.21376471  0.37452036  0.48214999     0.08200
H169        H  0.20072906  0.46757275  0.42695129     0.09400
Cu170      Cu  0.15156564  0.35049365  0.43133624     0.44200
Cu171      Cu  0.14122634  0.42628504  0.38217776     0.42000
Cu172      Cu  0.08056361  0.35730360  0.37451701     0.43900
N173        N  0.11270405  0.31774915  0.43354983    -0.34300
N174        N  0.08566306  0.32044405  0.41320756    -0.28500
C175        C  0.06298760  0.29851722  0.42528006    -0.04600
C176        C  0.07649484  0.28191418  0.45512694     0.07600
C177        C  0.10819608  0.29411506  0.45906275     0.01400
H178        H  0.03809702  0.29610923  0.41445371     0.09000
H179        H  0.12655778  0.28689455  0.47926461     0.08100
N180        N  0.07964240  0.40033474  0.34424846    -0.35700
N181        N  0.10119223  0.42494902  0.34693959    -0.27900
C182        C  0.09110012  0.45008632  0.32543964    -0.03100
C183        C  0.06182297  0.44078481  0.30879646     0.05500
C184        C  0.05521726  0.40920570  0.32112576     0.03600
H185        H  0.10325867  0.47393691  0.32369589     0.08700
H186        H  0.03350930  0.39435698  0.31524210     0.07500
N187        N  0.05987649  0.78178284  0.42503549    -0.26900
N188        N  0.05886347  0.81296905  0.43627523    -0.34700
C189        C  0.03219931  0.81762231  0.45786123     0.01500
C190        C  0.01558743  0.78797270  0.46089530     0.07500
C191        C  0.03344351  0.76572677  0.43940508    -0.05600
H192        H  0.02596576  0.84078550  0.47119750     0.08200
H193        H  0.02830780  0.73962217  0.43570511     0.09400
Cu194      Cu  0.09624186  0.84690332  0.42865037     0.44200
Cu195      Cu  0.09923983  0.76315893  0.39305460     0.42000
Cu196      Cu  0.17360422  0.81536936  0.39557514     0.43900
N197        N  0.14036375  0.87123821  0.43708491    -0.34300
N198        N  0.16931433  0.85925738  0.42645175    -0.28500
C199        C  0.19340304  0.87870936  0.44052394    -0.04600
C200        C  0.17873464  0.90363785  0.46133740     0.07600
C201        C  0.14510630  0.89836550  0.45809151     0.01400
H202        H  0.21966125  0.87431512  0.43711885     0.09000
H203        H  0.12544550  0.91267556  0.47060787     0.08100
N204        N  0.16956803  0.77181037  0.36401151    -0.35700
N205        N  0.14252855  0.75322379  0.36251922    -0.27900
C206        C  0.14705663  0.72930814  0.33679315    -0.03100
C207        C  0.17859413  0.73248145  0.32186338     0.05500
C208        C  0.19191723  0.75993175  0.33954203     0.03600
H209        H  0.12814341  0.71194646  0.32812299     0.08700
H210        H  0.21533181  0.77171951  0.33325535     0.07500
N211        N  0.06173583  0.78117742  0.07888838    -0.26900
N212        N  0.06017803  0.81267904  0.06890546    -0.34700
C213        C  0.03267304  0.81791550  0.04876098     0.01500
C214        C  0.01592337  0.78834806  0.04524863     0.07500
C215        C  0.03483624  0.76547737  0.06490762    -0.05600
H216        H  0.02600630  0.84142827  0.03650413     0.08200
H217        H  0.02997143  0.73923329  0.06767977     0.09400
Cu218      Cu  0.09781783  0.84646856  0.07652137     0.44200
Cu219      Cu  0.10221822  0.76232671  0.10974985     0.42000
Cu220      Cu  0.17517982  0.81721060  0.11242529     0.43900
N221        N  0.14159691  0.87194049  0.06957436    -0.34300
N222        N  0.17055932  0.86099264  0.08150205    -0.28500
C223        C  0.19450699  0.88084906  0.06781618    -0.04600
C224        C  0.17975884  0.90494326  0.04587109     0.07600
C225        C  0.14621218  0.89874346  0.04805828     0.01400
H226        H  0.22078246  0.87697551  0.07180867     0.09000
H227        H  0.12655880  0.91201941  0.03419444     0.08100
N228        N  0.17145679  0.77280710  0.14246232    -0.35700
N229        N  0.14519286  0.75307098  0.14190259    -0.27900
C230        C  0.14979636  0.72873737  0.16717925    -0.03100
C231        C  0.18053105  0.73290511  0.18398491     0.05500
C232        C  0.19326426  0.76134538  0.16781326     0.03600
H233        H  0.13131113  0.71043061  0.17441871     0.08700
H234        H  0.21580251  0.77403877  0.17573108     0.07500
C235        C  0.95154727  0.77687019  0.03919195     0.45900
H236        H  0.95118872  0.77761010  0.07003876    -0.03200
C237        C  0.95189934  0.77491367  0.46681579     0.45900
H238        H  0.95203591  0.77393386  0.43597875    -0.03200
C239        C  0.93937900  0.74403681  0.02302309    -0.16900
C240        C  0.92869395  0.80273114  0.02108261    -0.16600
C241        C  0.98601550  0.78241735  0.02218489    -0.17000
C242        C  0.93992827  0.74284010  0.48497676    -0.17000
C243        C  0.92879706  0.80167481  0.48278361    -0.16500
C244        C  0.98606441  0.78164157  0.48402584    -0.16800
C245        C  0.19129704  0.71679247  0.28734923     0.02700
C246        C  0.21560704  0.69146196  0.28778151     0.02700
C247        C  0.22770091  0.67918355  0.25376507    -0.17900
C248        C  0.21700093  0.69206853  0.21941203     0.02700
C249        C  0.19241188  0.71713879  0.21894727     0.02700
C250        C  0.17961652  0.72874794  0.25295931    -0.17900
H251        H  0.16114886  0.74825949  0.25268941     0.04700
H252        H  0.24674969  0.66023818  0.25406003     0.04700
N253        N  0.28271463  0.56071814  0.08211069    -0.26900
N254        N  0.31400662  0.55930464  0.07132330    -0.34700
C255        C  0.31884856  0.53189246  0.05092330     0.01500
C256        C  0.28921025  0.51515524  0.04811077     0.07500
C257        C  0.26675321  0.53386817  0.06848074    -0.05600
H258        H  0.34207205  0.52534659  0.03792001     0.08200
H259        H  0.24054882  0.52904137  0.07177481     0.09400
Cu260      Cu  0.34768995  0.59724987  0.07775914     0.44200
Cu261      Cu  0.26413805  0.60109829  0.11285751     0.42000
Cu262      Cu  0.31876782  0.67422073  0.11513357     0.43900
N263        N  0.37237132  0.64139342  0.06985667    -0.34300
N264        N  0.36156340  0.67017252  0.08247773    -0.28500
C265        C  0.38074967  0.69440143  0.06822186    -0.04600
C266        C  0.40422754  0.68004687  0.04514102     0.07600
C267        C  0.39843500  0.64641523  0.04732860     0.01400
H268        H  0.37689898  0.72060370  0.07280043     0.09000
H269        H  0.41164749  0.62694343  0.03309470     0.08100
N270        N  0.27424655  0.67046144  0.14488542    -0.35700
N271        N  0.25456070  0.64417122  0.14424234    -0.27900
C272        C  0.22970167  0.64897776  0.16875722    -0.03100
C273        C  0.23345336  0.67990064  0.18511200     0.05500
C274        C  0.26222027  0.69252816  0.16958891     0.03600
H275        H  0.21125408  0.63055295  0.17574064     0.08700
H276        H  0.27464026  0.71523648  0.17744163     0.07500
N277        N  0.28030144  0.56018321  0.42768294    -0.26900
N278        N  0.31162305  0.55971163  0.43852392    -0.34700
C279        C  0.31704725  0.53316523  0.46011708     0.01500
C280        C  0.28781372  0.51589929  0.46363389     0.07500
C281        C  0.26496503  0.53339973  0.44238291    -0.05600
H282        H  0.34055309  0.52731912  0.47290379     0.08200
H283        H  0.23896718  0.52763909  0.43890405     0.09400
Cu284      Cu  0.34514315  0.59727679  0.42962153     0.44200
Cu285      Cu  0.26094454  0.59930721  0.39510316     0.42000
Cu286      Cu  0.31376536  0.67390142  0.39584576     0.43900
N287        N  0.37008120  0.64127422  0.43672666    -0.34300
N288        N  0.35810826  0.67014956  0.42588126    -0.28500
C289        C  0.37771264  0.69433452  0.43951924    -0.04600
C290        C  0.40274729  0.67978470  0.46030553     0.07600
C291        C  0.39738112  0.64613636  0.45740261     0.01400
H292        H  0.37323505  0.72057594  0.43606246     0.09000
H293        H  0.41166220  0.62654720  0.47006777     0.08100
N294        N  0.26986195  0.66960775  0.36504270    -0.35700
N295        N  0.25108279  0.64266739  0.36386122    -0.27900
C296        C  0.22722072  0.64729651  0.33800031    -0.03100
C297        C  0.23065920  0.67877782  0.32276313     0.05500
C298        C  0.25817902  0.69190640  0.34041341     0.03600
H299        H  0.20975326  0.62846539  0.32937604     0.08700
H300        H  0.27027564  0.71510282  0.33385457     0.07500
C301        C  0.27544690  0.45187420  0.46924288     0.45900
H302        H  0.27515435  0.45194435  0.43838419    -0.03200
C303        C  0.27581020  0.45126012  0.04167056     0.45900
H304        H  0.27579255  0.45090689  0.07252302    -0.03200
C305        C  0.24285031  0.44054056  0.48650020    -0.16900
C306        C  0.30116617  0.42800939  0.48585842    -0.16600
C307        C  0.28239944  0.48592173  0.48662028    -0.17000
C308        C  0.24294397  0.44018173  0.02453470    -0.17000
C309        C  0.30145395  0.42777592  0.02414715    -0.16500
C310        C  0.28272953  0.48560105  0.02481899    -0.16800
N311        N  0.91398947  0.68065546  0.08860569    -0.26900
N312        N  0.88700685  0.68338721  0.06817121    -0.34700
C313        C  0.89167684  0.70690014  0.04254895     0.01500
C314        C  0.92342617  0.71898696  0.04648761     0.07500
C315        C  0.93678596  0.70244525  0.07647709    -0.05600
H316        H  0.87338127  0.71412418  0.02227436     0.08200
H317        H  0.96165955  0.70479825  0.08736870     0.09400
Cu318      Cu  0.84802589  0.65075617  0.07036441     0.44200
Cu319      Cu  0.91883328  0.64382625  0.12743540     0.42000
Cu320      Cu  0.85790340  0.57502327  0.11982476     0.43900
N321        N  0.81845066  0.60997965  0.06235885    -0.34300
N322        N  0.82225439  0.58148374  0.07981017    -0.28500
C323        C  0.80092441  0.55920134  0.06564237    -0.04600
C324        C  0.78359313  0.57454896  0.03747997     0.07600
C325        C  0.79477826  0.60676849  0.03661669     0.01400
H326        H  0.79873998  0.53370639  0.07459120     0.09000
H327        H  0.78629709  0.62659168  0.01887993     0.08100
N328        N  0.89809607  0.57610634  0.15484087    -0.35700
N329        N  0.91973434  0.60064772  0.15751141    -0.27900
C330        C  0.94429182  0.59156978  0.18035660    -0.03100
C331        C  0.93769273  0.55993271  0.19251026     0.05500
C332        C  0.90827043  0.55081142  0.17606632     0.03600
H333        H  0.96607925  0.60632581  0.18616419     0.08700
H334        H  0.89605491  0.52698585  0.17775034     0.07500
N335        N  0.83693617  0.57041879  0.43327634    -0.26900
N336        N  0.82771734  0.60179537  0.43503559    -0.34700
C337        C  0.79630029  0.60311079  0.44736032     0.01500
C338        C  0.78564215  0.57107429  0.45402866     0.07500
C339        C  0.81195362  0.55101143  0.44477648    -0.05600
H340        H  0.78326265  0.62575332  0.45396487     0.08200
H341        H  0.81363775  0.52446977  0.44854223     0.09400
Cu342      Cu  0.86081391  0.64104297  0.42954394     0.44200
Cu343      Cu  0.88364479  0.55547345  0.41822755     0.42000
Cu344      Cu  0.94722548  0.61744366  0.42076643     0.43900
N345        N  0.90041883  0.67279480  0.43972911    -0.34300
N346        N  0.93175421  0.66320304  0.43954066    -0.28500
C347        C  0.95071922  0.68746075  0.45378160    -0.04600
C348        C  0.93038049  0.71360121  0.46307305     0.07600
C349        C  0.89874066  0.70374201  0.45342719     0.01400
H350        H  0.97714706  0.68565875  0.45840812     0.09000
H351        H  0.87595589  0.71717015  0.45816535     0.08100
N352        N  0.95167941  0.57345453  0.39201758    -0.35700
N353        N  0.92830735  0.55053186  0.39163079    -0.27900
C354        C  0.93529269  0.52807221  0.36533969    -0.03100
C355        C  0.96429437  0.53751985  0.34812128     0.05500
C356        C  0.97423477  0.56623220  0.36582262     0.03600
H357        H  0.91881007  0.50826752  0.35699784     0.08700
H358        H  0.99456464  0.58226723  0.35801732     0.07500
O359        O  0.49005967  0.95230341  0.27987970    -0.72500
O360        O  0.54998549  0.01084912  0.22147683    -0.73500
O361        O  0.53842905  0.00000214  0.29778658    -0.62100
O362        O  0.50146273  0.96308200  0.20342359    -0.70500
O363        O  0.46276023  0.00222157  0.20326013    -0.70100
O364        O  0.49971262  0.03913634  0.29758603    -0.61400
O365        O  0.51123798  0.04998197  0.22127447    -0.73900
O366        O  0.45131148  0.99143688  0.27969388    -0.72600
Cu367      Cu  0.52134157  0.98016366  0.25062673     1.04600
Cu368      Cu  0.47989411  0.02208169  0.25041218     1.04300
C369        C  0.46142822  0.96274205  0.28925960     0.93700
C370        C  0.53998394  0.03965267  0.21218017     0.92800
C371        C  0.52487705  0.02537594  0.31251434     0.84900
C372        C  0.47622270  0.97678285  0.18856695     0.91200
N373        N  0.78404892  0.94084787  0.42071730    -0.26900
N374        N  0.81452811  0.94094963  0.43419108    -0.34700
C375        C  0.81863484  0.96739740  0.45629786     0.01500
C376        C  0.78926277  0.98475344  0.45763227     0.07500
C377        C  0.76788727  0.96760842  0.43425117    -0.05600
H378        H  0.84131707  0.97312788  0.47085456     0.08200
H379        H  0.74219490  0.97343206  0.42872033     0.09400
Cu380      Cu  0.84785607  0.90259041  0.42828568     0.44200
Cu381      Cu  0.76654756  0.90188494  0.38713624     0.42000
Cu382      Cu  0.81802923  0.82620603  0.39017114     0.43900
N383        N  0.87234921  0.85819760  0.43532873    -0.34300
N384        N  0.86120730  0.82956790  0.42258774    -0.28500
C385        C  0.88055435  0.80514668  0.43620773    -0.04600
C386        C  0.90453677  0.81923951  0.45892376     0.07600
C387        C  0.89876999  0.85289591  0.45725010     0.01400
H388        H  0.87647739  0.77899019  0.43150272     0.09000
H389        H  0.91220177  0.87218831  0.47157428     0.08100
N390        N  0.77431862  0.83092746  0.35881575    -0.35700
N391        N  0.75619273  0.85826994  0.35713960    -0.27900
C392        C  0.73176505  0.85370043  0.33202962    -0.03100
C393        C  0.73402714  0.82184991  0.31773668     0.05500
C394        C  0.76158605  0.80837931  0.33506436     0.03600
H395        H  0.71457658  0.87275120  0.32336799     0.08700
H396        H  0.77280132  0.78463627  0.32905749     0.07500
N397        N  0.78142239  0.94021677  0.07740755    -0.26900
N398        N  0.81289228  0.94113440  0.06720725    -0.34700
C399        C  0.81839536  0.96819229  0.04641929     0.01500
C400        C  0.78896525  0.98508676  0.04239724     0.07500
C401        C  0.76599088  0.96696570  0.06279819    -0.05600
H402        H  0.84202408  0.97446091  0.03420363     0.08200
H403        H  0.73982663  0.97220490  0.06561179     0.09400
Cu404      Cu  0.84599280  0.90278892  0.07459038     0.44200
Cu405      Cu  0.76202738  0.90052387  0.10886352     0.42000
Cu406      Cu  0.81305383  0.82516523  0.10523431     0.43900
N407        N  0.87029462  0.85841828  0.06657607    -0.34300
N408        N  0.85770008  0.82944269  0.07622495    -0.28500
C409        C  0.87733685  0.80529699  0.06270312    -0.04600
C410        C  0.90315102  0.81993613  0.04332870     0.07600
C411        C  0.89812408  0.85360201  0.04679442     0.01400
H412        H  0.87244685  0.77905111  0.06538733     0.09000
H413        H  0.91300827  0.87322940  0.03506195     0.08100
N414        N  0.76989384  0.82952641  0.13695299    -0.35700
N415        N  0.75184346  0.85687086  0.13919934    -0.27900
C416        C  0.72850525  0.85242312  0.16560765    -0.03100
C417        C  0.73151119  0.82066588  0.18011081     0.05500
C418        C  0.75826145  0.80711403  0.16148284     0.03600
H419        H  0.71177753  0.87155001  0.17514519     0.08700
H420        H  0.76997093  0.78357862  0.16733000     0.07500
C421        C  0.77825089  0.04935785  0.03572324     0.45900
H422        H  0.77905294  0.04980899  0.06656976    -0.03200
C423        C  0.77617075  0.04868689  0.46338892     0.45900
H424        H  0.77515156  0.04848069  0.43255407    -0.03200
C425        C  0.74564894  0.06212266  0.01963475    -0.16900
C426        C  0.80444847  0.07171363  0.01752550    -0.16600
C427        C  0.78325136  0.01474217  0.01889436    -0.17000
C428        C  0.74439679  0.06157184  0.48158949    -0.17000
C429        C  0.80337553  0.07138198  0.47920513    -0.16500
C430        C  0.78244610  0.01441977  0.48069034    -0.16800
C431        C  0.69150119  0.78570414  0.28440880     0.02700
C432        C  0.71769496  0.80912206  0.28357508     0.02700
C433        C  0.72937925  0.82054356  0.24902532    -0.17900
C434        C  0.71684941  0.80815547  0.21526431     0.02700
C435        C  0.69134888  0.78403186  0.21604644     0.02700
C436        C  0.67845826  0.77387492  0.25058895    -0.17900
H437        H  0.65893457  0.75540617  0.25119166     0.04700
H438        H  0.74922594  0.83866782  0.24839950     0.04700
N439        N  0.55966161  0.71696332  0.07957445    -0.26900
N440        N  0.56013035  0.68648853  0.06616293    -0.34700
C441        C  0.53370262  0.68172108  0.04422403     0.01500
C442        C  0.51572126  0.71068132  0.04300921     0.07500
C443        C  0.53247881  0.73248919  0.06623284    -0.05600
H444        H  0.52849236  0.65893851  0.02962078     0.08200
H445        H  0.52615301  0.75807804  0.07166864     0.09400
Cu446      Cu  0.59934126  0.65443211  0.07156731     0.44200
Cu447      Cu  0.59868354  0.73517032  0.11246017     0.42000
Cu448      Cu  0.67609979  0.68571388  0.10650688     0.43900
N449        N  0.64369188  0.63078160  0.06267784    -0.34300
N450        N  0.67256133  0.64224028  0.07433381    -0.28500
C451        C  0.69667374  0.62271667  0.06029249    -0.04600
C452        C  0.68201348  0.59835441  0.03847725     0.07600
C453        C  0.64846077  0.60415708  0.04094753     0.01400
H454        H  0.72293615  0.62673606  0.06430356     0.09000
H455        H  0.62885492  0.59052922  0.02736975     0.08100
N456        N  0.67036111  0.72871491  0.13912860    -0.35700
N457        N  0.64239621  0.74576272  0.14204828    -0.27900
C458        C  0.64636938  0.76942746  0.16816713    -0.03100
C459        C  0.67845466  0.76787622  0.18183585     0.05500
C460        C  0.69277852  0.74156058  0.16298154     0.03600
H461        H  0.62684329  0.78565832  0.17776849     0.08700
H462        H  0.71704211  0.73112280  0.16806569     0.07500
N463        N  0.55928361  0.71917438  0.42192275    -0.26900
N464        N  0.55899117  0.68773884  0.43230752    -0.34700
C465        C  0.53242458  0.68198063  0.45383107     0.01500
C466        C  0.51518464  0.71121060  0.45807675     0.07500
C467        C  0.53259051  0.73429490  0.43705956    -0.05600
H468        H  0.52666514  0.65830318  0.46624374     0.08200
H469        H  0.52690813  0.76035723  0.43416477     0.09400
Cu470      Cu  0.59763397  0.65513662  0.42386762     0.44200
Cu471      Cu  0.59825190  0.73914561  0.38968425     0.42000
Cu472      Cu  0.67492023  0.69039705  0.39512393     0.43900
N473        N  0.64245936  0.63154126  0.43159653    -0.34300
N474        N  0.67128267  0.64489196  0.42264369    -0.28500
C475        C  0.69568498  0.62539442  0.43590404    -0.04600
C476        C  0.68135475  0.59885431  0.45433064     0.07600
C477        C  0.64763611  0.60343506  0.45075997     0.01400
H478        H  0.72184196  0.63092218  0.43385217     0.09000
H479        H  0.62821944  0.58818126  0.46237448     0.08100
N480        N  0.66994929  0.73349056  0.36334168    -0.35700
N481        N  0.64199074  0.75040635  0.35985616    -0.27900
C482        C  0.64618607  0.77339160  0.33297517    -0.03100
C483        C  0.67845266  0.77144607  0.31958514     0.05500
C484        C  0.69255250  0.74566198  0.33937390     0.03600
H485        H  0.62666299  0.78915662  0.32243154     0.08700
H486        H  0.71662428  0.73472496  0.33447139     0.07500
C487        C  0.45110001  0.72296005  0.46521065     0.45900
H488        H  0.45054473  0.72275290  0.43435657    -0.03200
C489        C  0.45191848  0.72382822  0.03758963     0.45900
H490        H  0.45219668  0.72435155  0.06844027    -0.03200
C491        C  0.43943374  0.75569078  0.48209652    -0.16900
C492        C  0.42808732  0.69703008  0.48293280    -0.16600
C493        C  0.48559633  0.71667909  0.48182144    -0.17000
C494        C  0.43999519  0.75625213  0.02013743    -0.17000
C495        C  0.42850883  0.69747947  0.02126957    -0.16500
C496        C  0.48596528  0.71699624  0.02005446    -0.16800
N497        N  0.68197901  0.08669986  0.08530665    -0.26900
N498        N  0.68551938  0.11440821  0.06622299    -0.34700
C499        C  0.70937574  0.11018361  0.04083086     0.01500
C500        C  0.72069434  0.07801549  0.04337009     0.07500
C501        C  0.70343758  0.06395007  0.07240097    -0.05600
H502        H  0.71743703  0.12912567  0.02173799     0.08200
H503        H  0.70517113  0.03867344  0.08219281     0.09400
Cu504      Cu  0.65378689  0.15434328  0.06980398     0.44200
Cu505      Cu  0.64517269  0.08041038  0.12412701     0.42000
Cu506      Cu  0.57980872  0.14384381  0.12266985     0.43900
N507        N  0.61306496  0.18493870  0.06510333    -0.34300
N508        N  0.58525740  0.18077288  0.08382683    -0.28500
C509        C  0.56234912  0.20218145  0.07112942    -0.04600
C510        C  0.57648550  0.22010831  0.04263548     0.07600
C511        C  0.60875783  0.20909962  0.04009439     0.01400
H512        H  0.53705647  0.20367493  0.08092283     0.09000
H513        H  0.62777771  0.21776916  0.02141861     0.08100
N514        N  0.57910387  0.10175231  0.15488298    -0.35700
N515        N  0.60252667  0.07883978  0.15537786    -0.27900
C516        C  0.59262110  0.05355012  0.17686029    -0.03100
C517        C  0.56153773  0.06102043  0.19033498     0.05500
C518        C  0.55371062  0.09170502  0.17606704     0.03600
H519        H  0.60646756  0.03091146  0.18108297     0.08700
H520        H  0.53072614  0.10514826  0.17949598     0.07500
N521        N  0.57065267  0.16556785  0.43677721    -0.26900
N522        N  0.60190939  0.17530559  0.43853420    -0.34700
C523        C  0.60278166  0.20650455  0.45164303     0.01500
C524        C  0.57066190  0.21636169  0.45922659     0.07500
C525        C  0.55094381  0.18991955  0.44936314    -0.05600
H526        H  0.62525581  0.22005829  0.45768175     0.08200
H527        H  0.52440652  0.18783646  0.45292980     0.09400
Cu528      Cu  0.64197941  0.14323432  0.43160807     0.44200
Cu529      Cu  0.55609182  0.11937236  0.41877649     0.42000
Cu530      Cu  0.61910163  0.05730656  0.41811981     0.43900
N531        N  0.67438015  0.10348161  0.43900090    -0.34300
N532        N  0.66495513  0.07216005  0.43673751    -0.28500
C533        C  0.68937099  0.05252802  0.44928344    -0.04600
C534        C  0.71551960  0.07235099  0.45976613     0.07600
C535        C  0.70546257  0.10448571  0.45247525     0.01400
H536        H  0.68755189  0.02591758  0.45228361     0.09000
H537        H  0.71889202  0.12701597  0.45859264     0.00700
N538        N  0.57503275  0.05247259  0.38994089    -0.35700
N539        N  0.55172112  0.07542211  0.39016932    -0.27900
C540        C  0.52910210  0.06816400  0.36406565    -0.03100
C541        C  0.53887194  0.03936845  0.34650301     0.05500
C542        C  0.56793294  0.02992126  0.36371573     0.03600
H543        H  0.50869441  0.08412873  0.35637888     0.08700
H544        H  0.58416386  0.00982847  0.35569111     0.07500
N545        N  0.21833902  0.06055003  0.42351035    -0.26900
N546        N  0.18694339  0.05976723  0.43400184    -0.34700
C547        C  0.18151570  0.03284401  0.45502533     0.01500
C548        C  0.21091879  0.01587999  0.45887493     0.07500
C549        C  0.23379332  0.03381590  0.43812580    -0.05600
H550        H  0.15795726  0.02670921  0.46748993     0.08200
H551        H  0.25992130  0.02848510  0.43510933     0.09400
Cu552      Cu  0.15388534  0.09812891  0.42668884     0.44200
Cu553      Cu  0.23763522  0.10015774  0.39183726     0.42000
Cu554      Cu  0.18686279  0.17572822  0.39614439     0.43900
N555        N  0.12965959  0.14248558  0.43490641    -0.34300
N556        N  0.14225668  0.17146873  0.42529318    -0.28500
C557        C  0.12262611  0.19559499  0.43887972    -0.04600
C558        C  0.09682265  0.18092643  0.45825893     0.07600
C559        C  0.10185176  0.14726937  0.45473427     0.01400
H560        H  0.12748904  0.22184613  0.43619796     0.09000
H561        H  0.08696211  0.12762252  0.46641693     0.08100
N562        N  0.22993620  0.17134213  0.36422912    -0.35700
N563        N  0.24785147  0.14392512  0.36171508    -0.27900
C564        C  0.27114863  0.14842286  0.33527229    -0.03100
C565        C  0.26827960  0.18028729  0.32103177     0.05500
C566        C  0.24163259  0.19385278  0.33984317     0.03600
H567        H  0.28776797  0.12927623  0.32554681     0.08700
H568        H  0.23003036  0.21748260  0.33421556     0.07500
N569        N  0.21578879  0.06032741  0.08040423    -0.26900
N570        N  0.18520678  0.06003335  0.06722591    -0.34700
C571        C  0.18106201  0.03352000  0.04522266     0.01500
C572        C  0.21050832  0.01631314  0.04366604     0.07500
C573        C  0.23197968  0.03362399  0.06678090    -0.05600
H574        H  0.15830358  0.02764507  0.03088329     0.08200
H575        H  0.25773880  0.02793378  0.07208973     0.09400
Cu576      Cu  0.15174080  0.09821099  0.07339162     0.44200
Cu577      Cu  0.23335853  0.09939992  0.11381487     0.42000
Cu578      Cu  0.18148181  0.17469068  0.11149989     0.43900
N579        N  0.12721947  0.14256666  0.06638586    -0.34300
N580        N  0.13832538  0.17120053  0.07915411    -0.28500
C581        C  0.11902932  0.19561763  0.06546917    -0.04600
C582        C  0.09513399  0.18152062  0.04266583     0.07600
C583        C  0.10087235  0.14786576  0.04435876     0.01400
H584        H  0.12311455  0.22177494  0.07015703     0.09000
H585        H  0.08750077  0.12857984  0.02994969     0.08100
N586        N  0.22534677  0.17018847  0.14253293    -0.35700
N587        N  0.24367320  0.14297229  0.14394225    -0.27900
C588        C  0.26818749  0.14761738  0.16893227    -0.03100
C589        C  0.26575251  0.17939163  0.18341780     0.05500
C590        C  0.23801541  0.19272802  0.16632925     0.03600
H591        H  0.28553864  0.12865033  0.17741231     0.08700
H592        H  0.22663683  0.21635015  0.17254712     0.07500
C593        C  0.22374392  0.95240465  0.03802853     0.45900
H594        H  0.22459416  0.95262002  0.06886932    -0.03200
C595        C  0.22205146  0.95170829  0.46567497     0.45900
H596        H  0.22144158  0.95123332  0.43482356    -0.03200
C597        C  0.25571971  0.93978783  0.02006254    -0.16900
C598        C  0.19680027  0.92949420  0.02202822    -0.16600
C599        C  0.21732042  0.98662438  0.02065917    -0.17000
C600        C  0.25467533  0.93925877  0.48201816    -0.17000
C601        C  0.19591455  0.92916871  0.48370607    -0.16500
C602        C  0.21669004  0.98628268  0.48244616    -0.16800
C603        C  0.28291995  0.19292332  0.28591743     0.02700
C604        C  0.30836656  0.21711489  0.28519172     0.02700
C605        C  0.32119277  0.22740116  0.25066252    -0.17900
C606        C  0.30817962  0.21558978  0.21681768     0.02700
C607        C  0.28207472  0.19207730  0.21760252     0.02700
C608        C  0.27042154  0.18056757  0.25212568    -0.17900
H609        H  0.25062111  0.16239112  0.25270754     0.04700
H610        H  0.34066507  0.24592476  0.25009409     0.04700
N611        N  0.44011164  0.28374735  0.42204128    -0.26900
N612        N  0.43965961  0.31425427  0.43537359    -0.34700
C613        C  0.46607700  0.31904702  0.45732135     0.01500
C614        C  0.48405051  0.29008630  0.45862414     0.07500
C615        C  0.46728622  0.26823603  0.43544601    -0.05600
H616        H  0.47130811  0.34186682  0.47184499     0.08200
H617        H  0.47362638  0.24264461  0.43004453     0.09400
Cu618      Cu  0.40058004  0.34646725  0.42974983     0.44200
Cu619      Cu  0.40112789  0.26551603  0.38905703     0.42000
Cu620      Cu  0.32389095  0.31529215  0.39483001     0.43900
N621        N  0.35630434  0.37035584  0.43841451    -0.34300
N622        N  0.32742666  0.35887928  0.42681407    -0.28500
C623        C  0.30332514  0.37846242  0.44077790    -0.04600
C624        C  0.31799537  0.40290083  0.46248018     0.07600
C625        C  0.35155256  0.39707565  0.46001054     0.01400
H626        H  0.27706058  0.37441865  0.43682215     0.09000
H627        H  0.37116773  0.41072848  0.47353583     0.08100
N628        N  0.32951775  0.27227146  0.36221089    -0.35700
N629        N  0.35740836  0.25509343  0.35934195    -0.27900
C630        C  0.35335793  0.23146316  0.33318946    -0.03100
C631        C  0.32129766  0.23317820  0.31944980     0.05500
C632        C  0.30708029  0.25955518  0.33829430     0.03600
H633        H  0.37282028  0.21514495  0.32361015     0.08700
H634        H  0.28287931  0.27011965  0.33316624     0.07500
N635        N  0.44045739  0.28187924  0.07934328    -0.26900
N636        N  0.44087659  0.31333871  0.06904824    -0.34700
C637        C  0.46755774  0.31908201  0.04770701     0.01500
C638        C  0.48474674  0.28982631  0.04349466     0.07500
C639        C  0.46717913  0.26672567  0.06431398    -0.05600
H640        H  0.47340272  0.34275572  0.03533002     0.08200
H641        H  0.47276808  0.24063616  0.06713529     0.09400
Cu642      Cu  0.40229514  0.34604184  0.07726807     0.44200
Cu643      Cu  0.40134091  0.26192825  0.11135985     0.42000
Cu644      Cu  0.32500665  0.31122249  0.10646410     0.43900
N645        N  0.35755491  0.36976340  0.06948244    -0.34300
N646        N  0.32871783  0.35657782  0.07867344    -0.28500
C647        C  0.30433899  0.37608100  0.06538270    -0.04600
C648        C  0.31869407  0.40243746  0.04666185     0.07600
C649        C  0.35241143  0.39776807  0.05012141     0.01400
H650        H  0.27816936  0.37067115  0.06761920     0.09000
H651        H  0.37184358  0.41290576  0.03835402     0.08100
N652        N  0.32979931  0.26802228  0.13808773    -0.35700
N653        N  0.35762348  0.25084435  0.14129639    -0.27900
C654        C  0.35335581  0.22775739  0.16805290    -0.03100
C655        C  0.32118036  0.22992974  0.18166344     0.05500
C656        C  0.30721300  0.25594178  0.16213221     0.03600
H657        H  0.37278889  0.21176701  0.17837507     0.08700
H658        H  0.28325666  0.26705620  0.16723967     0.07500
C659        C  0.54793490  0.27726626  0.46395950     0.45900
H660        H  0.54759558  0.27661790  0.43311230    -0.03200
C661        C  0.54889608  0.27840815  0.03632795     0.45900
H662        H  0.54949937  0.27875934  0.06717946    -0.03200
C663        C  0.56015942  0.24501761  0.48155302    -0.16900
C664        C  0.57117903  0.30385310  0.48008695    -0.16600
C665        C  0.51387264  0.28388558  0.48153101    -0.17000
C666        C  0.56083444  0.24571651  0.01959600    -0.17000
C667        C  0.57168384  0.30443256  0.01842373    -0.16500
C668        C  0.51431796  0.28434200  0.01975252    -0.16800
N669        N  0.33491540  0.92918046  0.06557350    -0.26900
N670        N  0.32564945  0.89784266  0.06276289    -0.34700
C671        C  0.29468651  0.89683854  0.04895735     0.01500
C672        C  0.28449248  0.92899419  0.04207497     0.07500
C673        C  0.31047398  0.94883181  0.05308650    -0.05600
H674        H  0.28144943  0.87431277  0.04231330     0.08200
H675        H  0.31219368  0.97547812  0.05042788     0.09400
Cu676      Cu  0.35806266  0.85807649  0.06990405     0.44200
Cu677      Cu  0.38073070  0.94401541  0.08455097     0.42000
Cu678      Cu  0.44376479  0.88176046  0.08374361     0.43900
N679        N  0.39808017  0.82592900  0.06311805    -0.34300
N680        N  0.42934333  0.83555917  0.06537827    -0.28500
C681        C  0.44910440  0.81119439  0.05288116    -0.04600
C682        C  0.42940475  0.78485592  0.04255700     0.07600
C683        C  0.39723942  0.79481754  0.04973736     0.01400
H684        H  0.47568047  0.81321361  0.04966036     0.09000
H685        H  0.37478365  0.78140091  0.04324198     0.08100
N686        N  0.44843423  0.92601103  0.11186135    -0.35700
N687        N  0.42515578  0.94900282  0.11213818    -0.27900
C688        C  0.43264737  0.97184920  0.13791820    -0.03100
C689        C  0.46192741  0.96256801  0.15480761     0.05500
C690        C  0.47140783  0.93354683  0.13749083     0.03600
H691        H  0.41654249  0.99204761  0.14592917     0.08700
H692        H  0.49187826  0.91762842  0.14508696     0.07500
N693        N  0.41648295  0.82207517  0.41914146    -0.26900
N694        N  0.38825057  0.81744808  0.43691656    -0.34700
C695        C  0.39195470  0.79261965  0.46121415     0.01500
C696        C  0.42424250  0.78161468  0.45917085     0.07500
C697        C  0.43906980  0.80029635  0.43175706    -0.05600
H698        H  0.37257145  0.78358942  0.47921076     0.08200
H699        H  0.46459382  0.79906143  0.42269861     0.09400
Cu700      Cu  0.34769780  0.84820927  0.43213652     0.44200
Cu701      Cu  0.42282383  0.85985704  0.38150066     0.42000
Cu702      Cu  0.35764704  0.92332218  0.38021930     0.43900
N703        N  0.31591640  0.88805478  0.43591455    -0.34300
N704        N  0.31998472  0.91621009  0.41780418    -0.28500
C705        C  0.29814329  0.93863905  0.43058698    -0.04600
C706        C  0.28004499  0.92385644  0.45849250     0.07600
C707        C  0.29133785  0.89166387  0.46055027     0.01400
H708        H  0.29668380  0.96414719  0.42151728     0.09000
H709        H  0.28283421  0.87233530  0.47892294     0.08100
N710        N  0.40002597  0.92469180  0.34851561    -0.35700
N711        N  0.42341964  0.90175287  0.34894477    -0.27900
C712        C  0.44837472  0.91135073  0.32686019    -0.03100
C713        C  0.44025898  0.94174793  0.31201368     0.05500
C714        C  0.40950237  0.94954911  0.32617725     0.03600
H715        H  0.47123013  0.89776382  0.32307436     0.08700
H716        H  0.39555628  0.97208907  0.32170886     0.07500
O717        O  0.96360827  0.49865277  0.79899511    -0.72500
O718        O  0.99745231  0.46260887  0.70294526    -0.73500
O719        O  0.01121838  0.45115326  0.77853156    -0.62100
O720        O  0.94985017  0.50998380  0.72330664    -0.70500
O721        O  0.98837665  0.54940929  0.72252580    -0.70100
O722        O  0.04973601  0.49058852  0.77772116    -0.61400
O723        O  0.03600452  0.50195229  0.70207412    -0.73900
O724        O  0.00220396  0.53795235  0.79804691    -0.72600
Cu725      Cu  0.97915361  0.47920365  0.75100835     1.04600
Cu726      Cu  0.02045232  0.52135865  0.75001882     1.04300
C727        C  0.97751190  0.52392298  0.81360360     0.93700
C728        C  0.02215092  0.47668056  0.68743082     0.92800
C729        C  0.04000985  0.46171989  0.78706622     0.84900
C730        C  0.95956417  0.53887629  0.71403011     0.91200
N731        N  0.93844737  0.21943446  0.92204866    -0.26900
N732        N  0.94000528  0.18798187  0.93223819    -0.34700
C733        C  0.96739083  0.18289215  0.95263370     0.01500
C734        C  0.98407965  0.21249703  0.95607822     0.07500
C735        C  0.96525156  0.23523855  0.93612416    -0.05600
H736        H  0.97402750  0.15944764  0.96507816     0.08200
H737        H  0.97010657  0.26147193  0.93320703     0.09400
Cu738      Cu  0.90254128  0.15403018  0.92450355     0.44200
Cu739      Cu  0.89805031  0.23815087  0.89085929     0.42000
Cu740      Cu  0.82527145  0.18316177  0.88813775     0.43900
N741        N  0.85875468  0.12857631  0.93137769    -0.34300
N742        N  0.82983416  0.13947334  0.91926254    -0.28500
C743        C  0.80583473  0.11972078  0.93302197    -0.04600
C744        C  0.82050169  0.09576361  0.95522260     0.07600
C745        C  0.85405868  0.10191933  0.95309946     0.01400
H746        H  0.77957301  0.12360506  0.92893267     0.09000
H747        H  0.87365864  0.08873623  0.96716943     0.08100
N748        N  0.82877001  0.22767175  0.85823719    -0.35700
N749        N  0.85498227  0.24747363  0.85880370    -0.27900
C750        C  0.85018889  0.27194725  0.83372942    -0.03100
C751        C  0.81936966  0.26782023  0.81706944     0.05500
C752        C  0.80681511  0.23922444  0.83309027     0.03600
H753        H  0.86859312  0.29034503  0.82651999     0.08700
H754        H  0.78428261  0.22650683  0.82520241     0.07500
N755        N  0.93995630  0.21932334  0.57621606    -0.26900
N756        N  0.94110492  0.18806761  0.56523343    -0.34700
C757        C  0.96779122  0.18337238  0.54370294     0.01500
C758        C  0.98427401  0.21306161  0.54044472     0.07500
C759        C  0.96633347  0.23538365  0.56173734    -0.05600
H760        H  0.97411285  0.16015429  0.53053516     0.08200
H761        H  0.97137882  0.26152708  0.56523819     0.09400
Cu762      Cu  0.90387567  0.15404765  0.57296251     0.44200
Cu763      Cu  0.90051835  0.23805435  0.60799433     0.42000
Cu764      Cu  0.82638713  0.18570024  0.60546425     0.43900
N765        N  0.85982015  0.12976670  0.56419730    -0.34300
N766        N  0.83082993  0.14178736  0.57463237    -0.28500
C767        C  0.80680576  0.12233249  0.56044475    -0.04600
C768        C  0.82156180  0.09737118  0.53975673     0.07600
C769        C  0.85517303  0.10262226  0.54318972     0.01400
H770        H  0.78053763  0.12671960  0.56373418     0.09000
H771        H  0.87488692  0.08827112  0.53083561     0.08100
N772        N  0.83022750  0.22930208  0.63701220    -0.35700
N773        N  0.85720353  0.24797818  0.63847814    -0.27900
C774        C  0.85261750  0.27188496  0.66420450    -0.03100
C775        C  0.82110480  0.26860821  0.67918015     0.05500
C776        C  0.80786092  0.24110692  0.66151125     0.03600
H777        H  0.87149213  0.28928800  0.67287531     0.08700
H778        H  0.78450346  0.22922658  0.66784229     0.07500
C779        C  0.04795774  0.22593424  0.53467355     0.45900
H780        H  0.04776027  0.22689351  0.56551174    -0.03200
C781        C  0.04843934  0.22401093  0.96229757     0.45900
H782        H  0.04885722  0.22329207  0.93145109    -0.03200
C783        C  0.06007326  0.25797052  0.51657915    -0.16900
C784        C  0.07098822  0.19911188  0.51873715    -0.16600
C785        C  0.01381762  0.21932580  0.51737057    -0.17000
C786        C  0.06064827  0.25679682  0.97853929    -0.17000
C787        C  0.07120148  0.19809197  0.98043771    -0.16500
C788        C  0.01392701  0.21853658  0.97921231    -0.16800
C789        C  0.78273258  0.30874957  0.78183301     0.02700
C790        C  0.80735058  0.28367624  0.78219092     0.02700
C791        C  0.82010026  0.27215320  0.74811064    -0.17900
C792        C  0.80841484  0.28420992  0.71376423     0.02700
C793        C  0.78413999  0.30957506  0.71343296     0.02700
C794        C  0.77203730  0.32173371  0.74750873    -0.17900
H795        H  0.75300076  0.34069126  0.74728001     0.04700
H796        H  0.83856793  0.25264049  0.74829043     0.04700
N797        N  0.71691573  0.44039844  0.91894281    -0.26900
N798        N  0.68562315  0.44193319  0.92971757    -0.34700
C799        C  0.68087406  0.46938063  0.95009762     0.01500
C800        C  0.71056989  0.48602777  0.95290878     0.07500
C801        C  0.73296305  0.46720769  0.93256296    -0.05600
H802        H  0.65767023  0.47601458  0.96309355     0.08200
H803        H  0.75918541  0.47193945  0.92927598     0.09400
Cu804      Cu  0.65180389  0.40409097  0.92327066     0.44200
Cu805      Cu  0.73540625  0.39991133  0.88820916     0.42000
Cu806      Cu  0.68067651  0.32698948  0.88581586     0.43900
N807        N  0.62713408  0.35993183  0.93119922    -0.34300
N808        N  0.63791588  0.33114326  0.91856443    -0.28500
C809        C  0.61877542  0.30692328  0.93291909    -0.04600
C810        C  0.59535873  0.32128447  0.95607418     0.07600
C811        C  0.60113701  0.35491611  0.95383094     0.01400
H812        H  0.62263459  0.28071765  0.92837222     0.09000
H813        H  0.58797748  0.37439072  0.96812454     0.08100
N814        N  0.72531014  0.33052683  0.85618254    -0.35700
N815        N  0.74506436  0.35676240  0.85689183    -0.27900
C816        C  0.77001869  0.35184570  0.83251350    -0.03100
C817        C  0.76627644  0.32089922  0.81617641     0.05500
C818        C  0.73738295  0.30839472  0.83156565     0.03600
H819        H  0.78852281  0.37022566  0.82557329     0.08700
H820        H  0.72490983  0.28573126  0.82365523     0.07500
N821        N  0.71972173  0.44111645  0.57345935    -0.26900
N822        N  0.68840381  0.44153382  0.56260213    -0.34700
C823        C  0.68293753  0.46802466  0.54094572     0.01500
C824        C  0.71213661  0.48532457  0.53740207     0.07500
C825        C  0.73501309  0.46790512  0.55870841    -0.05600
H826        H  0.65942372  0.47380761  0.52814101     0.08200
H827        H  0.76099768  0.47372285  0.56218735     0.09400
Cu828      Cu  0.65491581  0.40399822  0.57152758     0.44200
Cu829      Cu  0.73911598  0.40202468  0.60610962     0.42000
Cu830      Cu  0.68632883  0.32739420  0.60501830     0.43900
N831        N  0.62994623  0.36007353  0.56434562    -0.34300
N832        N  0.64193113  0.33118007  0.57510137    -0.28500
C833        C  0.62225261  0.30703394  0.56152698    -0.04600
C834        C  0.59716204  0.32163706  0.54087098     0.07600
C835        C  0.60257474  0.35527133  0.54377658     0.01400
H836        H  0.62669585  0.28078561  0.56496569     0.09000
H837        H  0.58826545  0.37489089  0.53120661     0.08100
N838        N  0.73012800  0.33166029  0.63600198    -0.35700
N839        N  0.74888510  0.35861135  0.63735262    -0.27900
C840        C  0.77263657  0.35393332  0.66333854    -0.03100
C841        C  0.76914265  0.32241332  0.67847758     0.05500
C842        C  0.74171442  0.30931112  0.66063111     0.03600
H843        H  0.79007847  0.37274215  0.67208853     0.08700
H844        H  0.72961158  0.28608466  0.66704005     0.07500
C845        C  0.72416097  0.54992488  0.95933709     0.45900
H846        H  0.72420538  0.55027913  0.92848512    -0.03200
C847        C  0.72447418  0.54932419  0.53176570     0.45900
H848        H  0.72473305  0.54925827  0.56262537    -0.03200
C849        C  0.75703905  0.56093796  0.97652174    -0.16900
C850        C  0.69856432  0.57347973  0.97683225    -0.16600
C851        C  0.71714815  0.51559147  0.97618816    -0.17000
C852        C  0.75709836  0.56059537  0.51455926    -0.17000
C853        C  0.69882920  0.57324005  0.51511651    -0.16500
C854        C  0.71748616  0.51528830  0.51439028    -0.16800
N855        N  0.06833246  0.33774126  0.56161227    -0.26900
N856        N  0.09965186  0.32810311  0.56158055    -0.34700
C857        C  0.10129068  0.29706093  0.54813143     0.01500
C858        C  0.06963726  0.28719434  0.53850395     0.07500
C859        C  0.04934458  0.31343773  0.54752408    -0.05600
H860        H  0.12405995  0.28358303  0.54347401     0.08200
H861        H  0.02293833  0.31528630  0.54277275     0.09400
Cu862      Cu  0.13924452  0.35995274  0.57162122     0.44200
Cu863      Cu  0.05287974  0.38359557  0.57999453     0.42000
Cu864      Cu  0.11637783  0.44560504  0.58301604     0.43900
N865        N  0.17230694  0.39926529  0.56611150    -0.34300
N866        N  0.16308702  0.43064289  0.56791885    -0.28500
C867        C  0.18805678  0.45006216  0.55639540    -0.04600
C868        C  0.21436361  0.43001427  0.54707464     0.07600
C869        C  0.20371257  0.39796938  0.55373424     0.01400
H870        H  0.18636293  0.47660539  0.55265363     0.09000
H871        H  0.21674605  0.37533513  0.54708969     0.08100
N872        N  0.07161290  0.45040285  0.60947028    -0.35700
N873        N  0.04827393  0.42745095  0.60889602    -0.27900
C874        C  0.02563547  0.43452003  0.63505500    -0.03100
C875        C  0.03547321  0.46318016  0.65291820     0.05500
C876        C  0.06450800  0.47274700  0.63583974     0.03600
H877        H  0.00531614  0.41841537  0.64271465     0.08700
H878        H  0.08092878  0.49255363  0.64432945     0.07500
N879        N  0.17719981  0.41979202  0.92182293    -0.26900
N880        N  0.18119324  0.39124605  0.93911681    -0.34700
C881        C  0.20513276  0.39437933  0.96455342     0.01500
C882        C  0.21630737  0.42659712  0.96365315     0.07500
C883        C  0.19866891  0.44203931  0.93579791    -0.05600
H884        H  0.21376605  0.37452045  0.98214906     0.08200
H885        H  0.20072801  0.46757300  0.92695172     0.09400
Cu886      Cu  0.15156693  0.35049277  0.93133612     0.44200
Cu887      Cu  0.14122580  0.42628549  0.88217880     0.42000
Cu888      Cu  0.08056309  0.35730525  0.87451939     0.43900
N889        N  0.11270467  0.31774885  0.93355008    -0.34300
N890        N  0.08566323  0.32044483  0.91320865    -0.28500
C891        C  0.06298763  0.29851838  0.92528119    -0.04600
C892        C  0.07649501  0.28191437  0.95512710     0.07600
C893        C  0.10819655  0.29411437  0.95906233     0.01400
H894        H  0.03809651  0.29611134  0.91445534     0.09000
H895        H  0.12655869  0.28689298  0.97926385     0.08100
N896        N  0.07964104  0.40033643  0.84425119    -0.35700
N897        N  0.10119110  0.42495049  0.84694181    -0.27900
C898        C  0.09109906  0.45008765  0.82544171    -0.03100
C899        C  0.06182178  0.44078623  0.80879888     0.05500
C900        C  0.05521576  0.40920733  0.82112862     0.03600
H901        H  0.10325803  0.47393808  0.82369725     0.08700
H902        H  0.03350784  0.39435869  0.81524504     0.07500
N903        N  0.05987633  0.78178318  0.92503513    -0.26900
N904        N  0.05886291  0.81296939  0.93627464    -0.34700
C905        C  0.03219841  0.81762263  0.95786030     0.01500
C906        C  0.01558673  0.78797291  0.96089431     0.07500
C907        C  0.03344314  0.76572646  0.93940447    -0.05600
H908        H  0.02596460  0.84078558  0.97119650     0.08200
H909        H  0.02830778  0.73962266  0.93570501     0.09400
Cu910      Cu  0.09624109  0.84690370  0.92865082     0.44200
Cu911      Cu  0.09924015  0.76315909  0.89305489     0.42000
Cu912      Cu  0.17360371  0.81537021  0.89557539     0.43900
N913        N  0.14036311  0.87123831  0.93708593    -0.34300
N914        N  0.16931367  0.85925775  0.92645244    -0.28500
C915        C  0.19340238  0.87870967  0.94052469    -0.04600
C916        C  0.17873413  0.90363789  0.96133856     0.07600
C917        C  0.14510547  0.89836563  0.95809304     0.01400
H918        H  0.21966065  0.87431561  0.93711924     0.09000
H919        H  0.12544523  0.91267524  0.97060941     0.08100
N920        N  0.16956810  0.77181122  0.86401170    -0.35700
N921        N  0.14252894  0.75322423  0.86251956    -0.27900
C922        C  0.14705735  0.72930850  0.83679358    -0.03100
C923        C  0.17859484  0.73248226  0.82186374     0.05500
C924        C  0.19191763  0.75993295  0.83954218     0.03600
H925        H  0.12814447  0.71194653  0.82812363     0.08700
H926        H  0.21533175  0.77172094  0.83325549     0.07500
N927        N  0.06173593  0.78117788  0.57888935    -0.26900
N928        N  0.06017807  0.81267944  0.56890613    -0.34700
C929        C  0.03267306  0.81791562  0.54876183     0.01500
C930        C  0.01592340  0.78834832  0.54524966     0.07500
C931        C  0.03483632  0.76547769  0.56490878    -0.05600
H932        H  0.02600624  0.84142857  0.53650461     0.08200
H933        H  0.02997160  0.73923367  0.56768103     0.09400
Cu934      Cu  0.09781807  0.84646888  0.57652111     0.44200
Cu935      Cu  0.10221849  0.76232735  0.60975089     0.42000
Cu936      Cu  0.17518004  0.81721138  0.61242580     0.43900
N937        N  0.14159712  0.87194059  0.56957350    -0.34300
N938        N  0.17055948  0.86099302  0.58150165    -0.28500
C939        C  0.19450736  0.88084938  0.56781562    -0.04600
C940        C  0.17975904  0.90494323  0.54586990     0.07600
C941        C  0.14621244  0.89874323  0.54805693     0.01400
H942        H  0.22078248  0.87697623  0.57180842     0.09000
H943        H  0.12655905  0.91201907  0.53419279     0.08100
N944        N  0.17145720  0.77280792  0.64246301    -0.35700
N945        N  0.14519335  0.75307170  0.64190335    -0.27900
C946        C  0.14979705  0.72873784  0.66717985    -0.03100
C947        C  0.18053201  0.73290565  0.68398517     0.05500
C948        C  0.19326496  0.76134615  0.66781373     0.03600
H949        H  0.13131218  0.71043112  0.67441934     0.08700
H950        H  0.21580317  0.77403954  0.67573149     0.07500
C951        C  0.95154736  0.77687009  0.53919243     0.45900
H952        H  0.95118859  0.77760993  0.57003923    -0.03200
C953        C  0.95189868  0.77491372  0.96681533     0.45900
H954        H  0.95203497  0.77393377  0.93597828    -0.03200
C955        C  0.93937919  0.74403671  0.52302335    -0.16900
C956        C  0.92869412  0.80273101  0.52108296    -0.16600
C957        C  0.98601573  0.78241736  0.52218567    -0.17000
C958        C  0.93992764  0.74284027  0.98497644    -0.17000
C959        C  0.92879657  0.80167491  0.98278330    -0.16500
C960        C  0.98606391  0.78164152  0.98402508    -0.16800
C961        C  0.19129799  0.71679336  0.78734965     0.02700
C962        C  0.21560808  0.69146306  0.78778207     0.02700
C963        C  0.22770225  0.67918442  0.75376567    -0.17900
C964        C  0.21700202  0.69206931  0.71941243     0.02700
C965        C  0.19241288  0.71713940  0.71894754     0.02700
C966        C  0.17961747  0.72874868  0.75295961    -0.17900
H967        H  0.16114986  0.74825994  0.75268969     0.04700
H968        H  0.24675076  0.66023955  0.75406085     0.04700
N969        N  0.28271506  0.56071746  0.58211129    -0.26900
N970        N  0.31400702  0.55930375  0.57132367    -0.34700
C971        C  0.31884847  0.53189179  0.55092362     0.01500
C972        C  0.28921028  0.51515478  0.54811096     0.07500
C973        C  0.26675363  0.53386774  0.56848125    -0.05600
H974        H  0.34207233  0.52534588  0.53791994     0.08200
H975        H  0.24054885  0.52904118  0.57177550     0.09400
Cu976      Cu  0.34769069  0.59724868  0.57775917     0.44200
Cu977      Cu  0.26413890  0.60109774  0.61285857     0.42000
Cu978      Cu  0.31876904  0.67421950  0.61513404     0.43900
N979        N  0.37237180  0.64139238  0.56985579    -0.34300
N980        N  0.36156397  0.67017150  0.58247706    -0.28500
C981        C  0.38074993  0.69439997  0.56822068    -0.04600
C982        C  0.40422733  0.68004591  0.54513942     0.07600
C983        C  0.39843503  0.64641425  0.54732715     0.01400
H984        H  0.37689918  0.72060301  0.57279968     0.09000
H985        H  0.41164750  0.62694241  0.53309319     0.08100
N986        N  0.27424797  0.67046099  0.64488625    -0.35700
N987        N  0.25456184  0.64417101  0.64424328    -0.27900
C988        C  0.22970250  0.64897786  0.66875806    -0.03100
C989        C  0.23345460  0.67990107  0.68511254     0.05500
C990        C  0.26222179  0.69252798  0.66958947     0.03600
H991        H  0.21125496  0.63055365  0.67574141     0.08700
H992        H  0.27464208  0.71523632  0.67744204     0.07500
N993        N  0.28030176  0.56018375  0.92768310    -0.26900
N994        N  0.31162336  0.55971211  0.93852413    -0.34700
C995        C  0.31704744  0.53316563  0.96011705     0.01500
C996        C  0.28781398  0.51589967  0.96363372     0.07500
C997        C  0.26496532  0.53340022  0.94238287    -0.05600
H998        H  0.34055338  0.52731949  0.97290386     0.08200
H999        H  0.23896742  0.52763964  0.93890398     0.09400
Cu1000     Cu  0.34514340  0.59727737  0.92962227     0.44200
Cu1001     Cu  0.26094489  0.59930794  0.89510359     0.42000
Cu1002     Cu  0.31376531  0.67390208  0.89584750     0.43900
N1003       N  0.37008123  0.64127472  0.93672829    -0.34300
N1004       N  0.35810813  0.67015011  0.92588319    -0.28500
C1005       C  0.37771237  0.69433503  0.93952136    -0.04600
C1006       C  0.40274709  0.67978516  0.96030740     0.07600
C1007       C  0.39738100  0.64613700  0.95740410     0.01400
H1008       H  0.37323474  0.72057647  0.93606470     0.09000
H1009       H  0.41166247  0.62654746  0.97006919     0.08100
N1010       N  0.26986234  0.66960865  0.86504374    -0.35700
N1011       N  0.25108327  0.64266824  0.86386185    -0.27900
C1012       C  0.22722155  0.64729748  0.83800068    -0.03100
C1013       C  0.23066012  0.67877880  0.82276365     0.05500
C1014       C  0.25817958  0.69190723  0.84041445     0.03600
H1015       H  0.20975419  0.62846624  0.82937605     0.08700
H1016       H  0.27027638  0.71510394  0.83385585     0.07500
C1017       C  0.27544692  0.45187467  0.96924258     0.45900
H1018       H  0.27515443  0.45194480  0.93838388    -0.03200
C1019       C  0.27581048  0.45125960  0.54167080     0.45900
H1020       H  0.27579291  0.45090638  0.57252328    -0.03200
C1021       C  0.24285023  0.44054121  0.98649984    -0.16900
C1022       C  0.30116596  0.42800975  0.98585823    -0.16600
C1023       C  0.28239960  0.48592215  0.98662005    -0.17000
C1024       C  0.24294434  0.44018092  0.52453507    -0.17000
C1025       C  0.30145435  0.42777562  0.52414733    -0.16500
C1026       C  0.28272943  0.48560061  0.52481922    -0.16800
N1027       N  0.91398849  0.68065521  0.58860491    -0.26900
N1028       N  0.88700557  0.68338808  0.56817111    -0.34700
C1029       C  0.89167595  0.70690129  0.54254940     0.01500
C1030       C  0.92342562  0.71898714  0.54648754     0.07500
C1031       C  0.93678564  0.70244450  0.57647638    -0.05600
H1032       H  0.87338007  0.71412625  0.52227495     0.08200
H1033       H  0.96165915  0.70479647  0.58736733     0.09400
Cu1034     Cu  0.84802398  0.65075767  0.57036465     0.44200
Cu1035     Cu  0.91883282  0.64382524  0.62743358     0.42000
Cu1036     Cu  0.85790341  0.57502345  0.61982401     0.43900
N1037       N  0.81844912  0.60998066  0.56235942    -0.34300
N1038       N  0.82225374  0.58148459  0.57981035    -0.28500
C1039       C  0.80092439  0.55920181  0.56564250    -0.04600
C1040       C  0.78359254  0.57454924  0.53748053     0.07600
C1041       C  0.79477685  0.60676864  0.53661793     0.01400
H1042       H  0.79874098  0.53370659  0.57459099     0.09000
H1043       H  0.78629485  0.62659258  0.51888054     0.08100
N1044       N  0.89809675  0.57610544  0.65483885    -0.35700
N1045       N  0.91973513  0.60064672  0.65750906    -0.27900
C1046       C  0.94429269  0.59156864  0.68035375    -0.03100
C1047       C  0.93769374  0.55993172  0.69250754     0.05500
C1048       C  0.90827122  0.55081036  0.67606404     0.03600
H1049       H  0.96608036  0.60632496  0.68616134     0.08700
H1050       H  0.89605549  0.52698507  0.67774855     0.07500
N1051       N  0.83693480  0.57042097  0.93327350    -0.26900
N1052       N  0.82771586  0.60179740  0.93503331    -0.34700
C1053       C  0.79629879  0.60311282  0.94735918     0.01500
C1054       C  0.78564124  0.57107578  0.95402745     0.07500
C1055       C  0.81195265  0.55101293  0.94477428    -0.05600
H1056       H  0.78326143  0.62575441  0.95396419     0.08200
H1057       H  0.81363694  0.52447189  0.94853968     0.09400
Cu1058     Cu  0.86081213  0.64104510  0.92954147     0.44200
Cu1059     Cu  0.88364298  0.55547584  0.91822402     0.42000
Cu1060     Cu  0.94722397  0.61744510  0.92076400     0.43900
N1061       N  0.90041748  0.67279620  0.93972748    -0.34300
N1062       N  0.93175277  0.66320407  0.93953903    -0.28500
C1063       C  0.95071792  0.68746121  0.95378070    -0.04600
C1064       C  0.93037946  0.71360164  0.96307268     0.07600
C1065       C  0.89873965  0.70374312  0.95342626     0.01400
H1066       H  0.97714583  0.68565881  0.95840723     0.09000
H1067       H  0.87595489  0.71717153  0.95816459     0.08100
N1068       N  0.95167804  0.57345604  0.89201529    -0.35700
N1069       N  0.92830574  0.55053360  0.89162812    -0.27900
C1070       C  0.93529131  0.52807395  0.86533738    -0.03100
C1071       C  0.96429320  0.53752116  0.84811948     0.05500
C1072       C  0.97423360  0.56623333  0.86582092     0.03600
H1073       H  0.91880835  0.50826921  0.85699524     0.08700
H1074       H  0.99456393  0.58226833  0.85801593     0.07500
O1075       O  0.49005970  0.95230369  0.77988026    -0.72500
O1076       O  0.54998534  0.01084908  0.72147659    -0.73500
O1077       O  0.53842920  0.00000263  0.79778653    -0.62100
O1078       O  0.50146258  0.96308166  0.70342399    -0.70500
O1079       O  0.46276005  0.00222118  0.70326023    -0.70100
O1080       O  0.49971273  0.03913676  0.79758574    -0.61400
O1081       O  0.51123783  0.04998192  0.72127397    -0.73900
O1082       O  0.45131148  0.99143712  0.77969419    -0.72600
Cu1083     Cu  0.52134155  0.98016376  0.75062690     1.04600
Cu1084     Cu  0.47989406  0.02208175  0.75041209     1.04300
C1085       C  0.46142823  0.96274234  0.78926010     0.93700
C1086       C  0.53998381  0.03965258  0.71217972     0.92800
C1087       C  0.52487725  0.02537655  0.81251409     0.84900
C1088       C  0.47622251  0.97678234  0.68856726     0.91200
N1089       N  0.78404850  0.94084816  0.92071808    -0.26900
N1090       N  0.81452766  0.94094971  0.93419201    -0.34700
C1091       C  0.81863425  0.96739722  0.95629897     0.01500
C1092       C  0.78926243  0.98475343  0.95763346     0.07500
C1093       C  0.76788692  0.96760867  0.93425212    -0.05600
H1094       H  0.84131679  0.97312760  0.97085592     0.08200
H1095       H  0.74219462  0.97343250  0.92872114     0.09400
Cu1096     Cu  0.84785553  0.90259054  0.92828588     0.44200
Cu1097     Cu  0.76654705  0.90188546  0.88713648     0.42000
Cu1098     Cu  0.81802808  0.82620619  0.89017126     0.43900
N1099       N  0.87234850  0.85819780  0.93532865    -0.34300
N1100       N  0.86120637  0.82956814  0.92258785    -0.28500
C1101       C  0.88055341  0.80514651  0.93620778    -0.04600
C1102       C  0.90453608  0.81923969  0.95892368     0.07600
C1103       C  0.89876937  0.85289605  0.95724984     0.01400
H1104       H  0.87647650  0.77899062  0.93150309     0.09000
H1105       H  0.91220137  0.87218850  0.97157391     0.08100
N1106       N  0.77431747  0.83092804  0.85881576    -0.35700
N1107       N  0.75619189  0.85827070  0.85713959    -0.27900
C1108       C  0.73176416  0.85370147  0.83202951    -0.03100
C1109       C  0.73402584  0.82185088  0.81773657     0.05500
C1110       C  0.76158467  0.80837990  0.83506429     0.03600
H1111       H  0.71457595  0.87275235  0.82336791     0.08700
H1112       H  0.77279955  0.78463695  0.82905746     0.07500
N1113       N  0.78142308  0.94021749  0.57740751    -0.26900
N1114       N  0.81289288  0.94113479  0.56720671    -0.34700
C1115       C  0.81839583  0.96819229  0.54641815     0.01500
C1116       C  0.78896576  0.98508682  0.54239619     0.07500
C1117       C  0.76599172  0.96696621  0.56279789    -0.05600
H1118       H  0.84202458  0.97446062  0.53420208     0.08200
H1119       H  0.73982722  0.97220564  0.56561190     0.09400
Cu1120     Cu  0.84599333  0.90278923  0.57459034     0.44200
Cu1121     Cu  0.76202816  0.90052499  0.60886426     0.42000
Cu1122     Cu  0.81305392  0.82516585  0.60523473     0.43900
N1123       N  0.87029497  0.85841841  0.56657641    -0.34300
N1124       N  0.85770023  0.82944291  0.57622530    -0.28500
C1125       C  0.87733687  0.80529714  0.56270341    -0.04600
C1126       C  0.90315111  0.81993609  0.54332892     0.07600
C1127       C  0.89812443  0.85360201  0.54679472     0.01400
H1128       H  0.87244668  0.77905127  0.56538762     0.09000
H1129       H  0.91300872  0.87322926  0.53506233     0.08100
N1130       N  0.76989362  0.82952740  0.63695337    -0.35700
N1131       N  0.75184354  0.85687208  0.63919987    -0.27900
C1132       C  0.72850533  0.85242417  0.66560772    -0.03100
C1133       C  0.73151044  0.82066705  0.68011065     0.05500
C1134       C  0.75826072  0.80711490  0.66148282     0.03600
H1135       H  0.71177737  0.87155172  0.67514547     0.08700
H1136       H  0.76996983  0.78357937  0.66732983     0.07500
C1137       C  0.77825127  0.04935787  0.53572213     0.45900
H1138       H  0.77905341  0.04980901  0.56656857    -0.03200
C1139       C  0.77617061  0.04868696  0.96339019     0.45900
H1140       H  0.77515149  0.04848082  0.93255537    -0.03200
C1141       C  0.74564920  0.06212256  0.51963388    -0.16900
C1142       C  0.80444876  0.07171366  0.51752422    -0.16600
C1143       C  0.78325179  0.01474219  0.51889326    -0.17000
C1144       C  0.74439665  0.06157199  0.98159041    -0.17000
C1145       C  0.80337541  0.07138196  0.97920642    -0.16500
C1146       C  0.78244580  0.01441978  0.98069148    -0.16800
C1147       C  0.69150013  0.78570496  0.78440828     0.02700
C1148       C  0.71769368  0.80912322  0.78357477     0.02700
C1149       C  0.72937786  0.82054473  0.74902510    -0.17900
C1150       C  0.71684852  0.80815655  0.71526400     0.02700
C1151       C  0.69134818  0.78403263  0.71604596     0.02700
C1152       C  0.67845742  0.77387562  0.75058839    -0.17900
H1153       H  0.65893390  0.75540664  0.75119110     0.04700
H1154       H  0.74922456  0.83866946  0.74839944     0.04700
N1155       N  0.55966122  0.71696239  0.57957391    -0.26900
N1156       N  0.56012992  0.68648751  0.56616248    -0.34700
C1157       C  0.53370239  0.68172039  0.54422370     0.01500
C1158       C  0.51572109  0.71068043  0.54300849     0.07500
C1159       C  0.53247859  0.73248830  0.56623209    -0.05600
H1160       H  0.52849203  0.65893718  0.52962021     0.08200
H1161       H  0.52615283  0.75807730  0.57166783     0.09400
Cu1162     Cu  0.59934087  0.65443123  0.57156731     0.44200
Cu1163     Cu  0.59868328  0.73516947  0.61245985     0.42000
Cu1164     Cu  0.67609960  0.68571332  0.60650747     0.43900
N1165       N  0.64369178  0.63078104  0.56267819    -0.34300
N1166       N  0.67256117  0.64223979  0.57433428    -0.28500
C1167       C  0.69667366  0.62271635  0.56029288    -0.04600
C1168       C  0.68201361  0.59835415  0.53847742     0.07600
C1169       C  0.64846076  0.60415658  0.54094764     0.01400
H1170       H  0.72293613  0.62673589  0.56430407     0.09000
H1171       H  0.62885516  0.59052884  0.52736981     0.08100
N1172       N  0.67036085  0.72871472  0.63912870    -0.35700
N1173       N  0.64239588  0.74576247  0.64204798    -0.27900
C1174       C  0.64636898  0.76942753  0.66816638    -0.03100
C1175       C  0.67845418  0.76787666  0.68183535     0.05500
C1176       C  0.69277802  0.74156083  0.66298150     0.03600
H1177       H  0.62684262  0.78565848  0.67776744     0.08700
H1178       H  0.71704183  0.73112307  0.66806597     0.07500
N1179       N  0.55928273  0.71917415  0.92192240    -0.26900
N1180       N  0.55899026  0.68773860  0.93230725    -0.34700
C1181       C  0.53242399  0.68198063  0.95383139     0.01500
C1182       C  0.51518440  0.71121080  0.95807736     0.07500
C1183       C  0.53259009  0.73429459  0.93705976    -0.05600
H1184       H  0.52666460  0.65830332  0.96624424     0.08200
H1185       H  0.52690767  0.76035743  0.93416489     0.09400
Cu1186     Cu  0.59763269  0.65513586  0.92386677     0.44200
Cu1187     Cu  0.59825061  0.73914527  0.88968317     0.42000
Cu1188     Cu  0.67491851  0.69039625  0.89512176     0.43900
N1189       N  0.64245822  0.63154075  0.93159580    -0.34300
N1190       N  0.67128139  0.64489146  0.92264235    -0.28500
C1191       C  0.69568384  0.62539429  0.93590295    -0.04600
C1192       C  0.68135394  0.59885448  0.95433042     0.07600
C1193       C  0.64763537  0.60343505  0.95075980     0.01400
H1194       H  0.72184084  0.63092215  0.93385059     0.09000
H1195       H  0.62821865  0.58818118  0.96237486     0.08100
N1196       N  0.66994771  0.73349022  0.86334012    -0.35700
N1197       N  0.64198931  0.75040629  0.85985503    -0.27900
C1198       C  0.64618488  0.77339206  0.83297466    -0.03100
C1199       C  0.67845146  0.77144664  0.81958453     0.05500
C1200       C  0.69255118  0.74566188  0.83937259     0.03600
H1201       H  0.62666183  0.78915746  0.82243143     0.08700
H1202       H  0.71662260  0.73472490  0.83446990     0.07500
C1203       C  0.45109991  0.72296028  0.96521176     0.45900
H1204       H  0.45054452  0.72275286  0.93435771    -0.03200
C1205       C  0.45191826  0.72382715  0.53758881     0.45900
H1206       H  0.45219632  0.72435013  0.56843941    -0.03200
C1207       C  0.43943387  0.75569123  0.98209702    -0.16900
C1208       C  0.42808723  0.69703063  0.98293427    -0.16600
C1209       C  0.48559625  0.71667939  0.98182223    -0.17000
C1210       C  0.43999491  0.75625124  0.52013698    -0.17000
C1211       C  0.42850877  0.69747850  0.52126820    -0.16500
C1212       C  0.48596520  0.71699553  0.52005370    -0.16800
N1213       N  0.68197947  0.08669958  0.58530636    -0.26900
N1214       N  0.68551939  0.11440778  0.56622234    -0.34700
C1215       C  0.70937565  0.11018340  0.54082978     0.01500
C1216       C  0.72069455  0.07801524  0.54336940     0.07500
C1217       C  0.70343823  0.06394998  0.57240068    -0.05600
H1218       H  0.71743638  0.12912503  0.52173684     0.08200
H1219       H  0.70517215  0.03867333  0.58219273     0.09400
Cu1220     Cu  0.65378644  0.15434255  0.56980318     0.44200
Cu1221     Cu  0.64517314  0.08041036  0.62412694     0.42000
Cu1222     Cu  0.57980896  0.14384421  0.62267026     0.43900
N1223       N  0.61306479  0.18493847  0.56510288    -0.34300
N1224       N  0.58525743  0.18077323  0.58382701    -0.28500
C1225       C  0.56234953  0.20218187  0.57112964    -0.04600
C1226       C  0.57648547  0.22010815  0.54263521     0.07600
C1227       C  0.60875744  0.20909895  0.54009385     0.01400
H1228       H  0.53705653  0.20367564  0.58092371     0.09000
H1229       H  0.62777760  0.21776808  0.52141724     0.08100
N1230       N  0.57910415  0.10175231  0.65488296    -0.35700
N1231       N  0.60252693  0.07883970  0.65537772    -0.27900
C1232       C  0.59262107  0.05355011  0.67685987    -0.03100
C1233       C  0.56153773  0.06102026  0.69033451     0.05500
C1234       C  0.55371069  0.09170499  0.67606679     0.03600
H1235       H  0.60646768  0.03091116  0.68108255     0.08700
H1236       H  0.53072633  0.10514826  0.67949579     0.07500
N1237       N  0.57065340  0.16556921  0.93677651    -0.26900
N1238       N  0.60191007  0.17530673  0.93853438    -0.34700
C1239       C  0.60278246  0.20650568  0.95164381     0.01500
C1240       C  0.57066248  0.21636291  0.95922673     0.07500
C1241       C  0.55094399  0.18992093  0.94936245    -0.05600
H1242       H  0.62525622  0.22005905  0.95768325     0.08200
H1243       H  0.52440744  0.18783808  0.95292853     0.09400
Cu1244     Cu  0.64197996  0.14323539  0.93160884     0.44200
Cu1245     Cu  0.55609244  0.11937394  0.91877521     0.42000
Cu1246     Cu  0.61910182  0.05730774  0.91811987     0.43900
N1247       N  0.67438056  0.10348242  0.93900181    -0.34300
N1248       N  0.66495538  0.07216085  0.93673811    -0.28500
C1249       C  0.68937104  0.05252895  0.94928397    -0.04600
C1250       C  0.71551962  0.07235142  0.95976704     0.07600
C1251       C  0.70546274  0.10448606  0.95247628     0.01400
H1252       H  0.68755168  0.02591794  0.95228394     0.09000
H1253       H  0.71889248  0.12701663  0.95859396     0.00700
N1254       N  0.57503313  0.05247392  0.88994039    -0.35700
N1255       N  0.55172166  0.07542357  0.89016841    -0.27900
C1256       C  0.52910260  0.06816531  0.86406477    -0.03100
C1257       C  0.53887227  0.03936947  0.84650256     0.05500
C1258       C  0.56793329  0.02992219  0.86371545     0.03600
H1259       H  0.50869501  0.08412995  0.85637778     0.08700
H1260       H  0.58416383  0.00982937  0.85569125     0.07500
N1261       N  0.21833828  0.06054933  0.92351022    -0.26900
N1262       N  0.18694286  0.05976698  0.93400238    -0.34700
C1263       C  0.18151527  0.03284408  0.95502653     0.01500
C1264       C  0.21091831  0.01587983  0.95887582     0.07500
C1265       C  0.23379277  0.03381522  0.93812583    -0.05600
H1266       H  0.15795710  0.02670960  0.96749151     0.08200
H1267       H  0.25992030  0.02848409  0.93510887     0.09400
Cu1268     Cu  0.15388494  0.09812867  0.92668904     0.44200
Cu1269     Cu  0.23763445  0.10015639  0.89183622     0.42000
Cu1270     Cu  0.18686292  0.17572770  0.89614390     0.43900
N1271       N  0.12965936  0.14248551  0.93490615    -0.34300
N1272       N  0.14225664  0.17146858  0.92529280    -0.28500
C1273       C  0.12262617  0.19559497  0.93887928    -0.04600
C1274       C  0.09682261  0.18092657  0.95825858     0.07600
C1275       C  0.10185163  0.14726959  0.95473388     0.01400
H1276       H  0.12748926  0.22184607  0.93619748     0.09000
H1277       H  0.08696177  0.12762262  0.96641670     0.08100
N1278       N  0.22993655  0.17134107  0.86422882    -0.35700
N1279       N  0.24785136  0.14392378  0.86171452    -0.27900
C1280       C  0.27114881  0.14842139  0.83527203    -0.03100
C1281       C  0.26828052  0.18028607  0.82103198     0.05500
C1282       C  0.24163352  0.19385191  0.83984332     0.03600
H1283       H  0.28776783  0.12927452  0.82554644     0.08700
H1284       H  0.23003180  0.21748184  0.83421600     0.07500
N1285       N  0.21578916  0.06032724  0.58040359    -0.26900
N1286       N  0.18520725  0.06003339  0.56722503    -0.34700
C1287       C  0.18106260  0.03352029  0.54522159     0.01500
C1288       C  0.21050861  0.01631318  0.54366500     0.07500
C1289       C  0.23198025  0.03362371  0.56678022    -0.05600
H1290       H  0.15830391  0.02764553  0.53088192     0.08200
H1291       H  0.25773878  0.02793336  0.57208914     0.09400
Cu1292     Cu  0.15174142  0.09821083  0.57339131     0.44200
Cu1293     Cu  0.23335908  0.09939953  0.61381470     0.42000
Cu1294     Cu  0.18148292  0.17469062  0.61149973     0.43900
N1295       N  0.12722026  0.14256666  0.56638594    -0.34300
N1296       N  0.13832634  0.17120052  0.57915405    -0.28500
C1297       C  0.11903016  0.19561759  0.56546925    -0.04600
C1298       C  0.09513462  0.18152062  0.54266613     0.07600
C1299       C  0.10087292  0.14786569  0.54435902     0.01400
H1300       H  0.12311548  0.22177494  0.57015702     0.09000
H1301       H  0.08750130  0.12857993  0.52995017     0.08100
N1302       N  0.22534800  0.17018794  0.64253286    -0.35700
N1303       N  0.24367409  0.14297158  0.64394225    -0.27900
C1304       C  0.26818844  0.14761631  0.66893243    -0.03100
C1305       C  0.26575389  0.17939068  0.68341792     0.05500
C1306       C  0.23801679  0.19272769  0.66632933     0.03600
H1307       H  0.28553921  0.12864915  0.67741246     0.08700
H1308       H  0.22663880  0.21634944  0.67254709     0.07500
C1309       C  0.22374419  0.95240465  0.53802772     0.45900
H1310       H  0.22459430  0.95261997  0.56886858    -0.03200
C1311       C  0.22205097  0.95170820  0.96567604     0.45900
H1312       H  0.22144094  0.95123329  0.93482462    -0.03200
C1313       C  0.25572001  0.93978789  0.52006169    -0.16900
C1314       C  0.19680064  0.92949413  0.52202708    -0.16600
C1315       C  0.21732076  0.98662442  0.52065819    -0.17000
C1316       C  0.25467488  0.93925862  0.98201901    -0.17000
C1317       C  0.19591407  0.92916874  0.98370724    -0.16500
C1318       C  0.21668969  0.98628260  0.98244718    -0.16800
C1319       C  0.28292112  0.19292217  0.78591778     0.02700
C1320       C  0.30836736  0.21711420  0.78519225     0.02700
C1321       C  0.32119358  0.22740063  0.75066311    -0.17900
C1322       C  0.30818068  0.21558915  0.71681819     0.02700
C1323       C  0.28207610  0.19207625  0.71760281     0.02700
C1324       C  0.27042312  0.18056622  0.75212592    -0.17900
H1325       H  0.25062299  0.16238939  0.75270766     0.04700
H1326       H  0.34066569  0.24592438  0.75009477     0.04700
N1327       N  0.44011191  0.28374816  0.92204200    -0.26900
N1328       N  0.43966000  0.31425517  0.93537412    -0.34700
C1329       C  0.46607740  0.31904798  0.95732185     0.01500
C1330       C  0.48405078  0.29008713  0.95862484     0.07500
C1331       C  0.46728634  0.26823705  0.93544689    -0.05600
H1332       H  0.47130855  0.34186785  0.97184535     0.08200
H1333       H  0.47362641  0.24264515  0.93004549     0.09400
Cu1334     Cu  0.40058036  0.34646811  0.92975022     0.44200
Cu1335     Cu  0.40112803  0.26551696  0.88905767     0.42000
Cu1336     Cu  0.32389127  0.31529310  0.89482919     0.43900
N1337       N  0.35630435  0.37035657  0.93841439    -0.34300
N1338       N  0.32742672  0.35888006  0.92681355    -0.28500
C1339       C  0.30332551  0.37846309  0.94077735    -0.04600
C1340       C  0.31799518  0.40290128  0.96247995     0.07600
C1341       C  0.35155246  0.39707622  0.96001060     0.01400
H1342       H  0.27706031  0.37441909  0.93682112     0.09000
H1343       H  0.37116754  0.41072889  0.97353614     0.08100
N1344       N  0.32951806  0.27227193  0.86221067    -0.35700
N1345       N  0.35740867  0.25509380  0.85934234    -0.27900
C1346       C  0.35335832  0.23146312  0.83319035    -0.03100
C1347       C  0.32129814  0.23317787  0.81945035     0.05500
C1348       C  0.30708069  0.25955528  0.83829416     0.03600
H1349       H  0.37282082  0.21514471  0.82361151     0.08700
H1350       H  0.28287982  0.27011977  0.83316564     0.07500
N1351       N  0.44045798  0.28187951  0.57934355    -0.26900
N1352       N  0.44087732  0.31333893  0.56904854    -0.34700
C1353       C  0.46755842  0.31908238  0.54770650     0.01500
C1354       C  0.48474695  0.28982606  0.54349404     0.07500
C1355       C  0.46717942  0.26672562  0.56431373    -0.05600
H1356       H  0.47340341  0.34275517  0.53532979     0.08200
H1357       H  0.47276826  0.24063623  0.56713492     0.09400
Cu1358     Cu  0.40229632  0.34604261  0.57726878     0.44200
Cu1359     Cu  0.40134190  0.26192878  0.61136066     0.42000
Cu1360     Cu  0.32500806  0.31122345  0.60646621     0.43900
N1361       N  0.35755596  0.36976398  0.56948316    -0.34300
N1362       N  0.32871897  0.35657844  0.57867472    -0.28500
C1363       C  0.30434002  0.37608124  0.56538374    -0.04600
C1364       C  0.31869479  0.40243739  0.54666211     0.07600
C1365       C  0.35241211  0.39776815  0.55012156     0.01400
H1366       H  0.27817031  0.37067126  0.56762072     0.09000
H1367       H  0.37184433  0.41290588  0.53835367     0.08100
N1368       N  0.32980076  0.26802283  0.63808920    -0.35700
N1369       N  0.35762476  0.25084465  0.64129735    -0.27900
C1370       C  0.35335697  0.22775714  0.66805334    -0.03100
C1371       C  0.32118154  0.22992936  0.68166404     0.05500
C1372       C  0.30721395  0.25594219  0.66213359     0.03600
H1373       H  0.37278989  0.21176641  0.67837508     0.08700
H1374       H  0.28325847  0.26705629  0.66724129     0.07500
C1375       C  0.54793516  0.27726736  0.96396050     0.45900
H1376       H  0.54759596  0.27661934  0.93311333    -0.03200
C1377       C  0.54889616  0.27840790  0.53632691     0.45900
H1378       H  0.54949954  0.27875955  0.56717841    -0.03200
C1379       C  0.56015966  0.24501853  0.98155362    -0.16900
C1380       C  0.57117922  0.30385400  0.98008841    -0.16600
C1381       C  0.51387281  0.28388643  0.98153186    -0.17000
C1382       C  0.56083438  0.24571606  0.51959541    -0.17000
C1383       C  0.57168383  0.30443207  0.51842221    -0.16500
C1384       C  0.51431803  0.28434162  0.51975166    -0.16800
N1385       N  0.33491557  0.92917972  0.56557287    -0.26900
N1386       N  0.32564947  0.89784204  0.56276193    -0.34700
C1387       C  0.29468641  0.89683801  0.54895620     0.01500
C1388       C  0.28449260  0.92899392  0.54207420     0.07500
C1389       C  0.31047421  0.94883136  0.55308602    -0.05600
H1390       H  0.28144934  0.87431269  0.54231201     0.08200
H1391       H  0.31219399  0.97547747  0.55042764     0.09400
Cu1392     Cu  0.35806227  0.85807558  0.56990316     0.44200
Cu1393     Cu  0.38073074  0.94401444  0.58455074     0.42000
Cu1394     Cu  0.44376427  0.88175902  0.58374473     0.43900
N1395       N  0.39807985  0.82592788  0.56311776    -0.34300
N1396       N  0.42934308  0.83555781  0.56537876    -0.28500
C1397       C  0.44910380  0.81119304  0.55288181    -0.04600
C1398       C  0.42940455  0.78485487  0.54255683     0.07600
C1399       C  0.39723910  0.79481657  0.54973663     0.01400
H1400       H  0.47568060  0.81321224  0.54966149     0.09000
H1401       H  0.37478343  0.78140024  0.54324063     0.08100
N1402       N  0.44843385  0.92600973  0.61186220    -0.35700
N1403       N  0.42515564  0.94900175  0.61213846    -0.27900
C1404       C  0.43264722  0.97184851  0.63791832    -0.03100
C1405       C  0.46192717  0.96256709  0.65480808     0.05500
C1406       C  0.47140740  0.93354562  0.63749178     0.03600
H1407       H  0.41654278  0.99204700  0.64592882     0.08700
H1408       H  0.49187765  0.91762717  0.64508834     0.07500
N1409       N  0.41648295  0.82207484  0.91914110    -0.26900
N1410       N  0.38825080  0.81744837  0.93691693    -0.34700
C1411       C  0.39195509  0.79262039  0.96121469     0.01500
C1412       C  0.42424255  0.78161487  0.95917106     0.07500
C1413       C  0.43906939  0.80029593  0.93175667    -0.05600
H1414       H  0.37257158  0.78359069  0.97921213     0.08200
H1415       H  0.46459372  0.79906063  0.92269751     0.09400
Cu1416     Cu  0.34769839  0.84821007  0.93213731     0.44200
Cu1417     Cu  0.42282354  0.85985655  0.88149988     0.42000
Cu1418     Cu  0.35764630  0.92332214  0.88021913     0.43900
N1419       N  0.31591649  0.88805531  0.93591520    -0.34300
N1420       N  0.31998420  0.91621044  0.91780435    -0.28500
C1421       C  0.29814249  0.93863885  0.93058715    -0.04600
C1422       C  0.28004465  0.92385666  0.95849306     0.07600
C1423       C  0.29133800  0.89166411  0.96055138     0.01400
H1424       H  0.29668251  0.96414738  0.92151692     0.09000
H1425       H  0.28283498  0.87233603  0.97892408     0.08100
N1426       N  0.40002563  0.92469188  0.84851569    -0.35700
N1427       N  0.42341929  0.90175289  0.84894470    -0.27900
C1428       C  0.44837446  0.91135098  0.82686044    -0.03100
C1429       C  0.44025893  0.94174829  0.81201423     0.05500
C1430       C  0.40950227  0.94954931  0.82617766     0.03600
H1431       H  0.47122990  0.89776398  0.82307453     0.08700
H1432       H  0.39555615  0.97208940  0.82170934     0.07500
loop_ 
_geom_bond_atom_site_label_1 
_geom_bond_atom_site_label_2 
_geom_bond_distance 
_geom_bond_site_symmetry_2 
_ccdc_geom_bond_type 
O1           Cu9   2.000       .  S
O1           C11   1.277       .  A
O2           Cu9   1.998       .  S
O2           C12   1.276   1_655  A
O3           Cu9   1.985   1_455  S
O3           C13   1.275       .  A
O4           Cu9   1.985       .  S
O4           C14   1.275       .  A
O5          Cu10   1.985   1_655  S
O5           C14   1.275       .  A
O6          Cu10   1.984       .  S
O6           C13   1.275       .  A
O7          Cu10   1.998       .  S
O7           C12   1.277       .  A
O8          Cu10   1.996       .  S
O8           C11   1.276   1_455  A
Cu9         Cu10   2.381   1_655  S
C11         C355   1.460       .  S
C12         C159   1.460       .  S
C13         C183   1.450       .  S
C14         C331   1.450       .  S
N15          N16   1.323       .  A
N15          C19   1.354       .  A
N15         Cu23   2.119       .  S
N16          C17   1.343       .  A
N16         Cu22   2.059       .  S
C17          C18   1.377       .  A
C17          H20   1.081       .  S
C18          C19   1.392       .  A
C18          C72   1.485   1_655  S
C19          H21   1.082       .  S
Cu22         N25   2.059       .  S
Cu23         N33   2.120       .  S
Cu24         N26   2.098       .  S
Cu24         N32   2.100       .  S
N25          N26   1.322       .  A
N25          C29   1.344       .  A
N26          C27   1.349       .  A
C27          C28   1.388       .  A
C27          H30   1.082       .  S
C28          C29   1.379       .  A
C28         C429   1.481       .  S
C29          H31   1.080       .  S
N32          N33   1.326       .  A
N32          C36   1.350       .  A
N33          C34   1.353       .  A
C34          C35   1.391       .  A
C34          H37   1.082       .  S
C35          C74   1.491       .  S
C35          C36   1.386       .  A
C36          H38   1.082       .  S
N39          N40   1.323       .  A
N39          C43   1.351       .  A
N39         Cu47   2.102       .  S
N40          C41   1.341       .  A
N40         Cu46   2.054       .  S
C41          C42   1.375       .  A
C41          H44   1.081       .  S
C42          C43   1.387       .  A
C42          C69   1.475   1_655  S
C43          H45   1.082       .  S
Cu46         N49   2.054       .  S
Cu47         N57   2.103       .  S
Cu48         N50   2.099       .  S
Cu48         N56   2.100       .  S
N49          N50   1.322       .  A
N49          C53   1.344       .  A
N50          C51   1.348       .  A
C51          C52   1.388       .  A
C51          H54   1.082       .  S
C52          C53   1.378       .  A
C52         C426   1.480       .  S
C53          H55   1.080       .  S
N56          N57   1.325       .  A
N56          C60   1.350       .  A
N57          C58   1.351       .  A
C58          C59   1.388       .  A
C58          H61   1.082       .  S
C59          C76   1.487       .  S
C59          C60   1.386       .  A
C60          H62   1.082       .  S
C63          H64   1.112       .  S
C63          C69   1.535       .  S
C63          C68   1.538       .  S
C63          C67   1.528       .  S
C65          H66   1.112       .  S
C65          C71   1.538       .  S
C65          C70   1.528       .  S
C65          C72   1.536       .  S
C67         C142   1.471       .  S
C67         C786   1.371   1_554  D
C68         C582   1.482       .  S
C68         C787   1.380   1_554  D
C69         C788   1.375   1_554  D
C70         C176   1.466       .  S
C70         C783   1.371       .  D
C71         C558   1.479       .  S
C71         C784   1.380       .  D
C72         C785   1.375       .  D
C73         C101   1.488       .  S
C73          C74   1.419       .  A
C73          C78   1.411       .  A
C74          C75   1.410       .  A
C75          C76   1.411       .  A
C75          H80   1.085       .  S
C76          C77   1.417       .  A
C77         C125   1.490       .  S
C77          C78   1.409       .  A
C78          H79   1.085       .  S
N81          N82   1.323       .  A
N81          C85   1.353       .  A
N81         Cu89   2.110       .  S
N82          C83   1.343       .  A
N82         Cu88   2.061       .  S
C83          C84   1.377       .  A
C83          H86   1.081       .  S
C84          C85   1.390       .  A
C84         C135   1.482       .  S
C85          H87   1.082       .  S
Cu88         N91   2.061       .  S
Cu89         N99   2.111       .  S
Cu90         N92   2.098       .  S
Cu90         N98   2.099       .  S
N91          N92   1.322       .  A
N91          C95   1.344       .  A
N92          C93   1.349       .  A
C93          C94   1.388       .  A
C93          H96   1.082       .  S
C94          C95   1.380       .  A
C94         C664   1.482       .  S
C95          H97   1.080       .  S
N98          N99   1.325       .  A
N98         C102   1.350       .  A
N99         C100   1.351       .  A
C100        C101   1.389       .  A
C100        H103   1.082       .  S
C101        C102   1.386       .  A
C102        H104   1.082       .  S
N105        N106   1.323       .  A
N105        C109   1.354       .  A
N105       Cu113   2.118       .  S
N106        C107   1.342       .  A
N106       Cu112   2.055       .  S
C107        C108   1.375       .  A
C107        H110   1.081       .  S
C108        C109   1.392       .  A
C108        C138   1.482       .  S
C109        H111   1.082       .  S
Cu112       N115   2.055       .  S
Cu113       N123   2.120       .  S
Cu114       N116   2.096       .  S
Cu114       N122   2.097       .  S
N115        N116   1.321       .  A
N115        C119   1.344       .  A
N116        C117   1.348       .  A
C117        C118   1.388       .  A
C117        H120   1.082       .  S
C118        C119   1.379       .  A
C118        C667   1.481       .  S
C119        H121   1.080       .  S
N122        N123   1.326       .  A
N122        C126   1.349       .  A
N123        C124   1.353       .  A
C124        C125   1.391       .  A
C124        H127   1.082       .  S
C125        C126   1.385       .  A
C126        H128   1.082       .  S
C129        H130   1.112       .  S
C129        C135   1.539       .  S
C129        C134   1.539       .  S
C129        C133   1.530       .  S
C131        H132   1.112       .  S
C131        C137   1.537       .  S
C131        C136   1.525       .  S
C131        C138   1.535       .  S
C133        C338   1.469       .  S
C133        C852   1.370       .  D
C134        C476   1.480       .  S
C134        C853   1.379       .  D
C135        C854   1.376       .  D
C136        C324   1.463       .  S
C136        C849   1.370   1_554  D
C137        C452   1.482       .  S
C137        C850   1.379   1_554  D
C138        C851   1.376   1_554  D
N139        N140   1.323       .  A
N139        C143   1.344       .  A
N139       Cu147   2.062       .  S
N140        C141   1.345       .  A
N140       Cu146   2.082       .  S
C141        C142   1.382       .  A
C141        H144   1.081       .  S
C142        C143   1.378       .  A
C143        H145   1.082       .  S
Cu146       N149   2.082       .  S
Cu147       N157   2.062       .  S
Cu148       N150   2.053       .  S
Cu148       N156   2.052       .  S
N149        N150   1.322       .  A
N149        C153   1.345       .  A
N150        C151   1.342       .  A
C151        C152   1.377       .  A
C151        H154   1.082       .  S
C152        C153   1.384       .  A
C152        C308   1.469       .  S
C153        H155   1.081       .  S
N156        N157   1.321       .  A
N156        C160   1.341       .  A
N157        C158   1.343       .  A
C158        C159   1.382       .  A
C158        H161   1.082       .  S
C159        C160   1.379       .  A
C160        H162   1.082       .  S
N163        N164   1.320       .  A
N163        C167   1.345       .  A
N163       Cu171   2.053       .  S
N164        C165   1.337       .  A
N164       Cu170   2.052       .  S
C165        C166   1.376       .  A
C165        H168   1.080       .  S
C166        C167   1.379       .  A
C166        C305   1.463       .  S
C167        H169   1.082       .  S
Cu170       N173   2.052       .  S
Cu171       N181   2.055       .  S
Cu172       N174   2.049       .  S
Cu172       N180   2.051       .  S
N173        N174   1.319       .  A
N173        C177   1.337       .  A
N174        C175   1.345       .  A
C175        C176   1.379       .  A
C175        H178   1.082       .  S
C176        C177   1.378       .  A
C177        H179   1.079       .  S
N180        N181   1.324       .  A
N180        C184   1.339       .  A
N181        C182   1.340       .  A
C182        C183   1.377       .  A
C182        H185   1.082       .  S
C183        C184   1.376       .  A
C184        H186   1.082       .  S
N187        N188   1.323       .  A
N187        C191   1.351       .  A
N187       Cu195   2.102       .  S
N188        C189   1.341       .  A
N188       Cu194   2.056       .  S
C189        C190   1.376       .  A
C189        H192   1.081       .  S
C190        C191   1.388       .  A
C190        C244   1.476   1_455  S
C191        H193   1.082       .  S
Cu194       N197   2.056       .  S
Cu195       N205   2.104       .  S
Cu196       N198   2.099       .  S
Cu196       N204   2.100       .  S
N197        N198   1.322       .  A
N197        C201   1.344       .  A
N198        C199   1.348       .  A
C199        C200   1.388       .  A
C199        H202   1.082       .  S
C200        C201   1.379       .  A
C200        C601   1.480       .  S
C201        H203   1.080       .  S
N204        N205   1.325       .  A
N204        C208   1.350       .  A
N205        C206   1.350       .  A
C206        C207   1.388       .  A
C206        H209   1.082       .  S
C207        C245   1.487       .  S
C207        C208   1.386       .  A
C208        H210   1.082       .  S
N211        N212   1.323       .  A
N211        C215   1.354       .  A
N211       Cu219   2.118       .  S
N212        C213   1.343       .  A
N212       Cu218   2.059       .  S
C213        C214   1.377       .  A
C213        H216   1.081       .  S
C214        C215   1.392       .  A
C214        C241   1.484   1_455  S
C215        H217   1.082       .  S
Cu218       N221   2.059       .  S
Cu219       N229   2.119       .  S
Cu220       N222   2.098       .  S
Cu220       N228   2.099       .  S
N221        N222   1.322       .  A
N221        C225   1.344       .  A
N222        C223   1.349       .  A
C223        C224   1.388       .  A
C223        H226   1.082       .  S
C224        C225   1.379       .  A
C224        C598   1.481       .  S
C225        H227   1.080       .  S
N228        N229   1.326       .  A
N228        C232   1.350       .  A
N229        C230   1.352       .  A
C230        C231   1.390       .  A
C230        H233   1.082       .  S
C231        C249   1.491       .  S
C231        C232   1.386       .  A
C232        H234   1.082       .  S
C235        H236   1.112       .  S
C235        C241   1.537       .  S
C235        C240   1.538       .  S
C235        C239   1.528       .  S
C237        H238   1.112       .  S
C237        C243   1.539       .  S
C237        C242   1.529       .  S
C237        C244   1.536       .  S
C239        C314   1.467       .  S
C239        C958   1.372   1_554  D
C240        C410   1.479       .  S
C240        C959   1.380   1_554  D
C241        C960   1.375   1_554  D
C242        C348   1.471       .  S
C242        C955   1.372       .  D
C243        C386   1.483       .  S
C243        C956   1.380       .  D
C244        C957   1.375       .  D
C245        C246   1.417       .  A
C245        C250   1.411       .  A
C246        C297   1.490       .  S
C246        C247   1.409       .  A
C247        C248   1.410       .  A
C247        H252   1.085       .  S
C248        C273   1.486       .  S
C248        C249   1.418       .  A
C249        C250   1.410       .  A
C250        H251   1.085       .  S
N253        N254   1.323       .  A
N253        C257   1.352       .  A
N253       Cu261   2.109       .  S
N254        C255   1.342       .  A
N254       Cu260   2.060       .  S
C255        C256   1.377       .  A
C255        H258   1.081       .  S
C256        C257   1.390       .  A
C256        C310   1.481       .  S
C257        H259   1.082       .  S
Cu260       N263   2.061       .  S
Cu261       N271   2.109       .  S
Cu262       N264   2.097       .  S
Cu262       N270   2.098       .  S
N263        N264   1.322       .  A
N263        C267   1.344       .  A
N264        C265   1.349       .  A
C265        C266   1.388       .  A
C265        H268   1.082       .  S
C266        C267   1.380       .  A
C266        C495   1.482       .  S
C267        H269   1.079       .  S
N270        N271   1.325       .  A
N270        C274   1.349       .  A
N271        C272   1.351       .  A
C272        C273   1.388       .  A
C272        H275   1.082       .  S
C273        C274   1.386       .  A
C274        H276   1.082       .  S
N277        N278   1.323       .  A
N277        C281   1.353       .  A
N277       Cu285   2.117       .  S
N278        C279   1.342       .  A
N278       Cu284   2.057       .  S
C279        C280   1.376       .  A
C279        H282   1.081       .  S
C280        C281   1.391       .  A
C280        C307   1.482       .  S
C281        H283   1.082       .  S
Cu284       N287   2.057       .  S
Cu285       N295   2.119       .  S
Cu286       N288   2.097       .  S
Cu286       N294   2.098       .  S
N287        N288   1.321       .  A
N287        C291   1.344       .  A
N288        C289   1.349       .  A
C289        C290   1.388       .  A
C289        H292   1.082       .  S
C290        C291   1.379       .  A
C290        C492   1.481       .  S
C291        H293   1.080       .  S
N294        N295   1.326       .  A
N294        C298   1.349       .  A
N295        C296   1.353       .  A
C296        C297   1.391       .  A
C296        H299   1.082       .  S
C297        C298   1.385       .  A
C298        H300   1.082       .  S
C301        H302   1.112       .  S
C301        C307   1.536       .  S
C301        C306   1.538       .  S
C301        C305   1.525       .  S
C303        H304   1.112       .  S
C303        C309   1.539       .  S
C303        C308   1.529       .  S
C303        C310   1.539       .  S
C305       C1024   1.370       .  D
C306        C624   1.483       .  S
C306       C1025   1.379       .  D
C307       C1026   1.376       .  D
C308       C1021   1.370   1_554  D
C309        C648   1.479       .  S
C309       C1022   1.379   1_554  D
C310       C1023   1.376   1_554  D
N311        N312   1.319       .  A
N311        C315   1.346       .  A
N311       Cu319   2.051       .  S
N312        C313   1.337       .  A
N312       Cu318   2.053       .  S
C313        C314   1.378       .  A
C313        H316   1.079       .  S
C314        C315   1.380       .  A
C315        H317   1.082       .  S
Cu318       N321   2.053       .  S
Cu319       N329   2.053       .  S
Cu320       N322   2.053       .  S
Cu320       N328   2.055       .  S
N321        N322   1.320       .  A
N321        C325   1.338       .  A
N322        C323   1.345       .  A
C323        C324   1.379       .  A
C323        H326   1.082       .  S
C324        C325   1.377       .  A
C325        H327   1.080       .  S
N328        N329   1.324       .  A
N328        C332   1.340       .  A
N329        C330   1.339       .  A
C330        C331   1.376       .  A
C330        H333   1.082       .  S
C331        C332   1.377       .  A
C332        H334   1.082       .  S
N335        N336   1.322       .  A
N335        C339   1.342       .  A
N335       Cu343   2.053       .  S
N336        C337   1.345       .  A
N336       Cu342   2.081       .  S
C337        C338   1.384       .  A
C337        H340   1.081       .  S
C338        C339   1.377       .  A
C339        H341   1.082       .  S
Cu342       N345   2.081       .  S
Cu343       N353   2.051       .  S
Cu344       N346   2.064       .  S
Cu344       N352   2.063       .  S
N345        N346   1.323       .  A
N345        C349   1.345       .  A
N346        C347   1.344       .  A
C347        C348   1.378       .  A
C347        H350   1.082       .  S
C348        C349   1.382       .  A
C349        H351   1.081       .  S
N352        N353   1.321       .  A
N352        C356   1.343       .  A
N353        C354   1.341       .  A
C354        C355   1.379       .  A
C354        H357   1.082       .  S
C355        C356   1.382       .  A
C356        H358   1.082       .  S
O359       Cu367   1.992       .  S
O359        C369   1.276       .  A
O360       Cu367   1.993   1_545  S
O360        C370   1.276       .  A
O361       Cu367   2.000   1_545  S
O361        C371   1.277       .  A
O362       Cu367   2.002       .  S
O362        C372   1.277       .  A
O363       Cu368   2.001       .  S
O363        C372   1.277   1_545  A
O364       Cu368   2.000       .  S
O364        C371   1.277       .  A
O365       Cu368   1.993       .  S
O365        C370   1.276       .  A
O366       Cu368   1.993   1_565  S
O366        C369   1.276       .  A
Cu367      Cu368   2.380   1_565  S
C369        C713   1.456       .  S
C370        C517   1.456       .  S
C371        C541   1.462       .  S
C372        C689   1.463       .  S
N373        N374   1.322       .  A
N373        C377   1.353       .  A
N373       Cu381   2.105       .  S
N374        C375   1.342       .  A
N374       Cu380   2.062       .  S
C375        C376   1.378       .  A
C375        H378   1.080       .  S
C376        C377   1.390       .  A
C376        C430   1.483   1_565  S
C377        H379   1.082       .  S
Cu380       N383   2.062       .  S
Cu381       N391   2.107       .  S
Cu382       N384   2.102       .  S
Cu382       N390   2.103       .  S
N383        N384   1.322       .  A
N383        C387   1.344       .  A
N384        C385   1.350       .  A
C385        C386   1.389       .  A
C385        H388   1.082       .  S
C386        C387   1.380       .  A
C387        H389   1.080       .  S
N390        N391   1.326       .  A
N390        C394   1.350       .  A
N391        C392   1.350       .  A
C392        C393   1.388       .  A
C392        H395   1.082       .  S
C393        C432   1.487       .  S
C393        C394   1.387       .  A
C394        H396   1.082       .  S
N397        N398   1.323       .  A
N397        C401   1.353       .  A
N397       Cu405   2.113       .  S
N398        C399   1.343       .  A
N398       Cu404   2.062       .  S
C399        C400   1.378       .  A
C399        H402   1.080       .  S
C400        C401   1.391       .  A
C400        C427   1.484   1_565  S
C401        H403   1.082       .  S
Cu404       N407   2.063       .  S
Cu405       N415   2.114       .  S
Cu406       N408   2.090       .  S
Cu406       N414   2.091       .  S
N407        N408   1.322       .  A
N407        C411   1.345       .  A
N408        C409   1.348       .  A
C409        C410   1.386       .  A
C409        H412   1.082       .  S
C410        C411   1.380       .  A
C411        H413   1.080       .  S
N414        N415   1.325       .  A
N414        C418   1.349       .  A
N415        C416   1.351       .  A
C416        C417   1.390       .  A
C416        H419   1.082       .  S
C417        C434   1.486       .  S
C417        C418   1.384       .  A
C418        H420   1.082       .  S
C421        H422   1.112       .  S
C421        C427   1.536       .  S
C421        C426   1.537       .  S
C421        C425   1.527       .  S
C423        H424   1.112       .  S
C423        C429   1.539       .  S
C423        C428   1.532       .  S
C423        C430   1.538       .  S
C425        C500   1.469       .  S
C425       C1144   1.372   1_554  D
C426       C1145   1.381   1_554  D
C427       C1146   1.377   1_554  D
C428        C534   1.472       .  S
C428       C1141   1.372       .  D
C429       C1142   1.381       .  D
C430       C1143   1.377       .  D
C431        C483   1.488       .  S
C431        C432   1.418       .  A
C431        C436   1.410       .  A
C432        C433   1.409       .  A
C433        C434   1.409       .  A
C433        H438   1.085       .  S
C434        C435   1.417       .  A
C435        C459   1.488       .  S
C435        C436   1.410       .  A
C436        H437   1.085       .  S
N439        N440   1.321       .  A
N439        C443   1.352       .  A
N439       Cu447   2.103       .  S
N440        C441   1.341       .  A
N440       Cu446   2.054       .  S
C441        C442   1.377       .  A
C441        H444   1.080       .  S
C442        C443   1.390       .  A
C442        C496   1.480       .  S
C443        H445   1.082       .  S
Cu446       N449   2.054       .  S
Cu447       N457   2.105       .  S
Cu448       N450   2.107       .  S
Cu448       N456   2.109       .  S
N449        N450   1.322       .  A
N449        C453   1.343       .  A
N450        C451   1.351       .  A
C451        C452   1.390       .  A
C451        H454   1.082       .  S
C452        C453   1.377       .  A
C453        H455   1.080       .  S
N456        N457   1.326       .  A
N456        C460   1.351       .  A
N457        C458   1.350       .  A
C458        C459   1.387       .  A
C458        H461   1.082       .  S
C459        C460   1.387       .  A
C460        H462   1.082       .  S
N463        N464   1.323       .  A
N463        C467   1.353       .  A
N463       Cu471   2.115       .  S
N464        C465   1.344       .  A
N464       Cu470   2.064       .  S
C465        C466   1.378       .  A
C465        H468   1.080       .  S
C466        C467   1.391       .  A
C466        C493   1.486       .  S
C467        H469   1.082       .  S
Cu470       N473   2.064       .  S
Cu471       N481   2.116       .  S
Cu472       N474   2.092       .  S
Cu472       N480   2.092       .  S
N473        N474   1.322       .  A
N473        C477   1.344       .  A
N474        C475   1.348       .  A
C475        C476   1.387       .  A
C475        H478   1.081       .  S
C476        C477   1.379       .  A
C477        H479   1.081       .  S
N480        N481   1.325       .  A
N480        C484   1.349       .  A
N481        C482   1.352       .  A
C482        C483   1.391       .  A
C482        H485   1.082       .  S
C483        C484   1.384       .  A
C484        H486   1.082       .  S
C487        H488   1.112       .  S
C487        C493   1.536       .  S
C487        C492   1.538       .  S
C487        C491   1.529       .  S
C489        H490   1.112       .  S
C489        C495   1.539       .  S
C489        C494   1.530       .  S
C489        C496   1.538       .  S
C491        C696   1.468       .  S
C491       C1210   1.371       .  D
C492       C1211   1.381       .  D
C493       C1212   1.377       .  D
C494        C682   1.472       .  S
C494       C1207   1.371   1_554  D
C495       C1208   1.381   1_554  D
C496       C1209   1.377   1_554  D
N497        N498   1.321       .  A
N497        C501   1.345       .  A
N497       Cu505   2.056       .  S
N498        C499   1.339       .  A
N498       Cu504   2.063       .  S
C499        C500   1.380       .  A
C499        H502   1.079       .  S
C500        C501   1.379       .  A
C501        H503   1.082       .  S
Cu504       N507   2.063       .  S
Cu505       N515   2.058       .  S
Cu506       N508   2.056       .  S
Cu506       N514   2.058       .  S
N507        N508   1.320       .  A
N507        C511   1.339       .  A
N508        C509   1.346       .  A
C509        C510   1.380       .  A
C509        H512   1.082       .  S
C510        C511   1.379       .  A
C510        C666   1.469       .  S
C511        H513   1.079       .  S
N514        N515   1.323       .  A
N514        C518   1.341       .  A
N515        C516   1.342       .  A
C516        C517   1.379       .  A
C516        H519   1.082       .  S
C517        C518   1.378       .  A
C518        H520   1.082       .  S
N521        N522   1.323       .  A
N521        C525   1.344       .  A
N521       Cu529   2.059       .  S
N522        C523   1.345       .  A
N522       Cu528   2.087       .  S
C523        C524   1.384       .  A
C523        H526   1.081       .  S
C524        C525   1.377       .  A
C524        C663   1.471       .  S
C525        H527   1.082       .  S
Cu528       N531   2.087       .  S
Cu529       N539   2.059       .  S
Cu530       N532   2.057       .  S
Cu530       N538   2.057       .  S
N531        N532   1.322       .  A
N531        C535   1.346       .  A
N532        C533   1.343       .  A
C533        C534   1.377       .  A
C533        H536   1.082       .  S
C534        C535   1.384       .  A
C535        H537   1.081       .  S
N538        N539   1.321       .  A
N538        C542   1.342       .  A
N539        C540   1.343       .  A
C540        C541   1.381       .  A
C540        H543   1.082       .  S
C541        C542   1.380       .  A
C542        H544   1.082       .  S
N545        N546   1.323       .  A
N545        C549   1.353       .  A
N545       Cu553   2.113       .  S
N546        C547   1.343       .  A
N546       Cu552   2.061       .  S
C547        C548   1.377       .  A
C547        H550   1.080       .  S
C548        C549   1.391       .  A
C548        C602   1.484   1_545  S
C549        H551   1.082       .  S
Cu552       N555   2.062       .  S
Cu553       N563   2.114       .  S
Cu554       N556   2.091       .  S
Cu554       N562   2.092       .  S
N555        N556   1.322       .  A
N555        C559   1.345       .  A
N556        C557   1.348       .  A
C557        C558   1.387       .  A
C557        H560   1.082       .  S
C558        C559   1.379       .  A
C559        H561   1.080       .  S
N562        N563   1.325       .  A
N562        C566   1.349       .  A
N563        C564   1.351       .  A
C564        C565   1.390       .  A
C564        H567   1.082       .  S
C565        C603   1.487       .  S
C565        C566   1.384       .  A
C566        H568   1.082       .  S
N569        N570   1.322       .  A
N569        C573   1.353       .  A
N569       Cu577   2.106       .  S
N570        C571   1.342       .  A
N570       Cu576   2.062       .  S
C571        C572   1.378       .  A
C571        H574   1.080       .  S
C572        C573   1.390       .  A
C572        C599   1.483   1_545  S
C573        H575   1.082       .  S
Cu576       N579   2.062       .  S
Cu577       N587   2.108       .  S
Cu578       N580   2.100       .  S
Cu578       N586   2.102       .  S
N579        N580   1.322       .  A
N579        C583   1.344       .  A
N580        C581   1.350       .  A
C581        C582   1.388       .  A
C581        H584   1.082       .  S
C582        C583   1.379       .  A
C583        H585   1.080       .  S
N586        N587   1.326       .  A
N586        C590   1.350       .  A
N587        C588   1.350       .  A
C588        C589   1.388       .  A
C588        H591   1.082       .  S
C589        C607   1.487       .  S
C589        C590   1.386       .  A
C590        H592   1.082       .  S
C593        H594   1.112       .  S
C593        C599   1.539       .  S
C593        C598   1.539       .  S
C593        C597   1.531       .  S
C595        H596   1.112       .  S
C595        C601   1.537       .  S
C595        C600   1.527       .  S
C595        C602   1.536       .  S
C597        C672   1.472       .  S
C597       C1316   1.371   1_554  D
C598       C1317   1.381   1_554  D
C599       C1318   1.377   1_554  D
C600        C706   1.468       .  S
C600       C1313   1.371       .  D
C601       C1314   1.381       .  D
C602       C1315   1.377       .  D
C603        C604   1.417       .  A
C603        C608   1.409       .  A
C604        C631   1.488       .  S
C604        C605   1.410       .  A
C605        C606   1.410       .  A
C605        H610   1.085       .  S
C606        C655   1.488       .  S
C606        C607   1.418       .  A
C607        C608   1.409       .  A
C608        H609   1.085       .  S
N611        N612   1.322       .  A
N611        C615   1.352       .  A
N611       Cu619   2.104       .  S
N612        C613   1.341       .  A
N612       Cu618   2.055       .  S
C613        C614   1.377       .  A
C613        H616   1.080       .  S
C614        C615   1.390       .  A
C614        C665   1.481       .  S
C615        H617   1.082       .  S
Cu618       N621   2.055       .  S
Cu619       N629   2.106       .  S
Cu620       N622   2.107       .  S
Cu620       N628   2.109       .  S
N621        N622   1.322       .  A
N621        C625   1.343       .  A
N622        C623   1.351       .  A
C623        C624   1.390       .  A
C623        H626   1.082       .  S
C624        C625   1.378       .  A
C625        H627   1.080       .  S
N628        N629   1.326       .  A
N628        C632   1.351       .  A
N629        C630   1.350       .  A
C630        C631   1.387       .  A
C630        H633   1.082       .  S
C631        C632   1.387       .  A
C632        H634   1.082       .  S
N635        N636   1.323       .  A
N635        C639   1.353       .  A
N635       Cu643   2.115       .  S
N636        C637   1.343       .  A
N636       Cu642   2.063       .  S
C637        C638   1.378       .  A
C637        H640   1.080       .  S
C638        C639   1.391       .  A
C638        C668   1.485       .  S
C639        H641   1.082       .  S
Cu642       N645   2.063       .  S
Cu643       N653   2.116       .  S
Cu644       N646   2.092       .  S
Cu644       N652   2.092       .  S
N645        N646   1.322       .  A
N645        C649   1.345       .  A
N646        C647   1.348       .  A
C647        C648   1.386       .  A
C647        H650   1.081       .  S
C648        C649   1.380       .  A
C649        H651   1.081       .  S
N652        N653   1.325       .  A
N652        C656   1.349       .  A
N653        C654   1.352       .  A
C654        C655   1.391       .  A
C654        H657   1.082       .  S
C655        C656   1.384       .  A
C656        H658   1.082       .  S
C659        H660   1.112       .  S
C659        C665   1.537       .  S
C659        C664   1.539       .  S
C659        C663   1.530       .  S
C661        H662   1.112       .  S
C661        C667   1.538       .  S
C661        C666   1.529       .  S
C661        C668   1.537       .  S
C663       C1382   1.371       .  D
C664       C1383   1.381       .  D
C665       C1384   1.377       .  D
C666       C1379   1.371   1_554  D
C667       C1380   1.381   1_554  D
C668       C1381   1.377   1_554  D
N669        N670   1.323       .  A
N669        C673   1.344       .  A
N669       Cu677   2.060       .  S
N670        C671   1.345       .  A
N670       Cu676   2.087       .  S
C671        C672   1.384       .  A
C671        H674   1.081       .  S
C672        C673   1.377       .  A
C673        H675   1.082       .  S
Cu676       N679   2.087       .  S
Cu677       N687   2.059       .  S
Cu678       N680   2.062       .  S
Cu678       N686   2.062       .  S
N679        N680   1.323       .  A
N679        C683   1.345       .  A
N680        C681   1.344       .  A
C681        C682   1.378       .  A
C681        H684   1.082       .  S
C682        C683   1.384       .  A
C683        H685   1.081       .  S
N686        N687   1.321       .  A
N686        C690   1.343       .  A
N687        C688   1.343       .  A
C688        C689   1.381       .  A
C688        H691   1.082       .  S
C689        C690   1.381       .  A
C690        H692   1.082       .  S
N693        N694   1.320       .  A
N693        C697   1.346       .  A
N693       Cu701   2.057       .  S
N694        C695   1.339       .  A
N694       Cu700   2.062       .  S
C695        C696   1.379       .  A
C695        H698   1.079       .  S
C696        C697   1.379       .  A
C697        H699   1.082       .  S
Cu700       N703   2.062       .  S
Cu701       N711   2.058       .  S
Cu702       N704   2.056       .  S
Cu702       N710   2.058       .  S
N703        N704   1.321       .  A
N703        C707   1.339       .  A
N704        C705   1.345       .  A
C705        C706   1.379       .  A
C705        H708   1.082       .  S
C706        C707   1.379       .  A
C707        H709   1.079       .  S
N710        N711   1.323       .  A
N710        C714   1.342       .  A
N711        C712   1.341       .  A
C712        C713   1.378       .  A
C712        H715   1.082       .  S
C713        C714   1.379       .  A
C714        H716   1.082       .  S
O717       Cu725   2.000       .  S
O717        C727   1.277       .  A
O718       Cu725   1.998       .  S
O718        C728   1.276   1_655  A
O719       Cu725   1.985   1_455  S
O719        C729   1.275       .  A
O720       Cu725   1.985       .  S
O720        C730   1.275       .  A
O721       Cu726   1.985   1_655  S
O721        C730   1.275       .  A
O722       Cu726   1.984       .  S
O722        C729   1.275       .  A
O723       Cu726   1.998       .  S
O723        C728   1.277       .  A
O724       Cu726   1.996       .  S
O724        C727   1.276   1_455  A
Cu725      Cu726   2.381   1_655  S
C727       C1071   1.460       .  S
C728        C875   1.460       .  S
C729        C899   1.450       .  S
C730       C1047   1.450       .  S
N731        N732   1.323       .  A
N731        C735   1.354       .  A
N731       Cu739   2.119       .  S
N732        C733   1.343       .  A
N732       Cu738   2.059       .  S
C733        C734   1.377       .  A
C733        H736   1.081       .  S
C734        C735   1.392       .  A
C734        C788   1.485   1_655  S
C735        H737   1.082       .  S
Cu738       N741   2.059       .  S
Cu739       N749   2.120       .  S
Cu740       N742   2.098       .  S
Cu740       N748   2.100       .  S
N741        N742   1.322       .  A
N741        C745   1.344       .  A
N742        C743   1.349       .  A
C743        C744   1.388       .  A
C743        H746   1.082       .  S
C744        C745   1.379       .  A
C744       C1145   1.481       .  S
C745        H747   1.080       .  S
N748        N749   1.326       .  A
N748        C752   1.350       .  A
N749        C750   1.353       .  A
C750        C751   1.391       .  A
C750        H753   1.082       .  S
C751        C790   1.491       .  S
C751        C752   1.386       .  A
C752        H754   1.082       .  S
N755        N756   1.323       .  A
N755        C759   1.351       .  A
N755       Cu763   2.102       .  S
N756        C757   1.341       .  A
N756       Cu762   2.054       .  S
C757        C758   1.375       .  A
C757        H760   1.081       .  S
C758        C759   1.387       .  A
C758        C785   1.475   1_655  S
C759        H761   1.082       .  S
Cu762       N765   2.054       .  S
Cu763       N773   2.103       .  S
Cu764       N766   2.099       .  S
Cu764       N772   2.100       .  S
N765        N766   1.322       .  A
N765        C769   1.344       .  A
N766        C767   1.348       .  A
C767        C768   1.388       .  A
C767        H770   1.081       .  S
C768        C769   1.378       .  A
C768       C1142   1.480       .  S
C769        H771   1.080       .  S
N772        N773   1.325       .  A
N772        C776   1.350       .  A
N773        C774   1.351       .  A
C774        C775   1.388       .  A
C774        H777   1.082       .  S
C775        C792   1.487       .  S
C775        C776   1.386       .  A
C776        H778   1.082       .  S
C779        H780   1.112       .  S
C779        C785   1.535       .  S
C779        C784   1.538       .  S
C779        C783   1.528       .  S
C781        H782   1.112       .  S
C781        C787   1.538       .  S
C781        C786   1.528       .  S
C781        C788   1.536       .  S
C783        C858   1.471       .  S
C784       C1298   1.482       .  S
C786        C892   1.466       .  S
C787       C1274   1.479       .  S
C789        C817   1.488       .  S
C789        C790   1.419       .  A
C789        C794   1.411       .  A
C790        C791   1.410       .  A
C791        C792   1.411       .  A
C791        H796   1.085       .  S
C792        C793   1.417       .  A
C793        C841   1.490       .  S
C793        C794   1.409       .  A
C794        H795   1.085       .  S
N797        N798   1.323       .  A
N797        C801   1.353       .  A
N797       Cu805   2.110       .  S
N798        C799   1.343       .  A
N798       Cu804   2.061       .  S
C799        C800   1.377       .  A
C799        H802   1.081       .  S
C800        C801   1.390       .  A
C800        C851   1.482       .  S
C801        H803   1.082       .  S
Cu804       N807   2.061       .  S
Cu805       N815   2.111       .  S
Cu806       N808   2.098       .  S
Cu806       N814   2.099       .  S
N807        N808   1.322       .  A
N807        C811   1.344       .  A
N808        C809   1.349       .  A
C809        C810   1.388       .  A
C809        H812   1.082       .  S
C810        C811   1.380       .  A
C810       C1380   1.482       .  S
C811        H813   1.080       .  S
N814        N815   1.325       .  A
N814        C818   1.350       .  A
N815        C816   1.351       .  A
C816        C817   1.389       .  A
C816        H819   1.082       .  S
C817        C818   1.386       .  A
C818        H820   1.082       .  S
N821        N822   1.323       .  A
N821        C825   1.354       .  A
N821       Cu829   2.118       .  S
N822        C823   1.342       .  A
N822       Cu828   2.055       .  S
C823        C824   1.375       .  A
C823        H826   1.081       .  S
C824        C825   1.392       .  A
C824        C854   1.482       .  S
C825        H827   1.082       .  S
Cu828       N831   2.055       .  S
Cu829       N839   2.120       .  S
Cu830       N832   2.096       .  S
Cu830       N838   2.097       .  S
N831        N832   1.321       .  A
N831        C835   1.344       .  A
N832        C833   1.348       .  A
C833        C834   1.388       .  A
C833        H836   1.082       .  S
C834        C835   1.379       .  A
C834       C1383   1.481       .  S
C835        H837   1.080       .  S
N838        N839   1.326       .  A
N838        C842   1.349       .  A
N839        C840   1.353       .  A
C840        C841   1.391       .  A
C840        H843   1.082       .  S
C841        C842   1.385       .  A
C842        H844   1.082       .  S
C845        H846   1.112       .  S
C845        C851   1.539       .  S
C845        C850   1.539       .  S
C845        C849   1.530       .  S
C847        H848   1.112       .  S
C847        C853   1.537       .  S
C847        C852   1.525       .  S
C847        C854   1.535       .  S
C849       C1054   1.469       .  S
C850       C1192   1.480       .  S
C852       C1040   1.463       .  S
C853       C1168   1.482       .  S
N855        N856   1.323       .  A
N855        C859   1.344       .  A
N855       Cu863   2.062       .  S
N856        C857   1.345       .  A
N856       Cu862   2.082       .  S
C857        C858   1.382       .  A
C857        H860   1.081       .  S
C858        C859   1.378       .  A
C859        H861   1.082       .  S
Cu862       N865   2.082       .  S
Cu863       N873   2.062       .  S
Cu864       N866   2.053       .  S
Cu864       N872   2.052       .  S
N865        N866   1.322       .  A
N865        C869   1.345       .  A
N866        C867   1.342       .  A
C867        C868   1.377       .  A
C867        H870   1.082       .  S
C868        C869   1.384       .  A
C868       C1024   1.469       .  S
C869        H871   1.081       .  S
N872        N873   1.321       .  A
N872        C876   1.341       .  A
N873        C874   1.343       .  A
C874        C875   1.382       .  A
C874        H877   1.082       .  S
C875        C876   1.379       .  A
C876        H878   1.082       .  S
N879        N880   1.320       .  A
N879        C883   1.345       .  A
N879       Cu887   2.053       .  S
N880        C881   1.337       .  A
N880       Cu886   2.052       .  S
C881        C882   1.376       .  A
C881        H884   1.080       .  S
C882        C883   1.379       .  A
C882       C1021   1.463       .  S
C883        H885   1.082       .  S
Cu886       N889   2.052       .  S
Cu887       N897   2.055       .  S
Cu888       N890   2.049       .  S
Cu888       N896   2.051       .  S
N889        N890   1.319       .  A
N889        C893   1.337       .  A
N890        C891   1.345       .  A
C891        C892   1.379       .  A
C891        H894   1.082       .  S
C892        C893   1.378       .  A
C893        H895   1.079       .  S
N896        N897   1.324       .  A
N896        C900   1.339       .  A
N897        C898   1.340       .  A
C898        C899   1.377       .  A
C898        H901   1.082       .  S
C899        C900   1.376       .  A
C900        H902   1.082       .  S
N903        N904   1.323       .  A
N903        C907   1.351       .  A
N903       Cu911   2.102       .  S
N904        C905   1.341       .  A
N904       Cu910   2.056       .  S
C905        C906   1.376       .  A
C905        H908   1.081       .  S
C906        C907   1.388       .  A
C906        C960   1.476   1_455  S
C907        H909   1.082       .  S
Cu910       N913   2.056       .  S
Cu911       N921   2.104       .  S
Cu912       N914   2.099       .  S
Cu912       N920   2.100       .  S
N913        N914   1.322       .  A
N913        C917   1.344       .  A
N914        C915   1.348       .  A
C915        C916   1.388       .  A
C915        H918   1.082       .  S
C916        C917   1.379       .  A
C916       C1317   1.480       .  S
C917        H919   1.080       .  S
N920        N921   1.325       .  A
N920        C924   1.350       .  A
N921        C922   1.350       .  A
C922        C923   1.388       .  A
C922        H925   1.082       .  S
C923        C961   1.487       .  S
C923        C924   1.386       .  A
C924        H926   1.082       .  S
N927        N928   1.323       .  A
N927        C931   1.354       .  A
N927       Cu935   2.118       .  S
N928        C929   1.343       .  A
N928       Cu934   2.059       .  S
C929        C930   1.377       .  A
C929        H932   1.081       .  S
C930        C931   1.392       .  A
C930        C957   1.484   1_455  S
C931        H933   1.082       .  S
Cu934       N937   2.059       .  S
Cu935       N945   2.119       .  S
Cu936       N938   2.098       .  S
Cu936       N944   2.099       .  S
N937        N938   1.322       .  A
N937        C941   1.344       .  A
N938        C939   1.349       .  A
C939        C940   1.388       .  A
C939        H942   1.082       .  S
C940        C941   1.379       .  A
C940       C1314   1.481       .  S
C941        H943   1.080       .  S
N944        N945   1.326       .  A
N944        C948   1.350       .  A
N945        C946   1.352       .  A
C946        C947   1.390       .  A
C946        H949   1.082       .  S
C947        C965   1.491       .  S
C947        C948   1.386       .  A
C948        H950   1.082       .  S
C951        H952   1.112       .  S
C951        C957   1.537       .  S
C951        C956   1.538       .  S
C951        C955   1.528       .  S
C953        H954   1.112       .  S
C953        C959   1.539       .  S
C953        C958   1.529       .  S
C953        C960   1.536       .  S
C955       C1030   1.467       .  S
C956       C1126   1.479       .  S
C958       C1064   1.471       .  S
C959       C1102   1.483       .  S
C961        C962   1.417       .  A
C961        C966   1.411       .  A
C962       C1013   1.490       .  S
C962        C963   1.409       .  A
C963        C964   1.410       .  A
C963        H968   1.085       .  S
C964        C989   1.486       .  S
C964        C965   1.418       .  A
C965        C966   1.410       .  A
C966        H967   1.085       .  S
N969        N970   1.323       .  A
N969        C973   1.352       .  A
N969       Cu977   2.109       .  S
N970        C971   1.342       .  A
N970       Cu976   2.060       .  S
C971        C972   1.377       .  A
C971        H974   1.081       .  S
C972        C973   1.390       .  A
C972       C1026   1.481       .  S
C973        H975   1.082       .  S
Cu976       N979   2.061       .  S
Cu977       N987   2.109       .  S
Cu978       N980   2.097       .  S
Cu978       N986   2.098       .  S
N979        N980   1.322       .  A
N979        C983   1.344       .  A
N980        C981   1.349       .  A
C981        C982   1.388       .  A
C981        H984   1.082       .  S
C982        C983   1.380       .  A
C982       C1211   1.482       .  S
C983        H985   1.079       .  S
N986        N987   1.325       .  A
N986        C990   1.349       .  A
N987        C988   1.351       .  A
C988        C989   1.388       .  A
C988        H991   1.082       .  S
C989        C990   1.386       .  A
C990        H992   1.082       .  S
N993        N994   1.323       .  A
N993        C997   1.353       .  A
N993      Cu1001   2.117       .  S
N994        C995   1.342       .  A
N994      Cu1000   2.057       .  S
C995        C996   1.376       .  A
C995        H998   1.081       .  S
C996        C997   1.391       .  A
C996       C1023   1.482       .  S
C997        H999   1.082       .  S
Cu1000     N1003   2.057       .  S
Cu1001     N1011   2.119       .  S
Cu1002     N1004   2.097       .  S
Cu1002     N1010   2.098       .  S
N1003      N1004   1.321       .  A
N1003      C1007   1.344       .  A
N1004      C1005   1.349       .  A
C1005      C1006   1.388       .  A
C1005      H1008   1.082       .  S
C1006      C1007   1.379       .  A
C1006      C1208   1.481       .  S
C1007      H1009   1.080       .  S
N1010      N1011   1.326       .  A
N1010      C1014   1.349       .  A
N1011      C1012   1.353       .  A
C1012      C1013   1.391       .  A
C1012      H1015   1.082       .  S
C1013      C1014   1.385       .  A
C1014      H1016   1.082       .  S
C1017      H1018   1.112       .  S
C1017      C1023   1.536       .  S
C1017      C1022   1.538       .  S
C1017      C1021   1.525       .  S
C1019      H1020   1.112       .  S
C1019      C1025   1.539       .  S
C1019      C1024   1.529       .  S
C1019      C1026   1.539       .  S
C1022      C1340   1.483       .  S
C1025      C1364   1.479       .  S
N1027      N1028   1.319       .  A
N1027      C1031   1.346       .  A
N1027     Cu1035   2.051       .  S
N1028      C1029   1.337       .  A
N1028     Cu1034   2.053       .  S
C1029      C1030   1.378       .  A
C1029      H1032   1.079       .  S
C1030      C1031   1.380       .  A
C1031      H1033   1.082       .  S
Cu1034     N1037   2.053       .  S
Cu1035     N1045   2.053       .  S
Cu1036     N1038   2.053       .  S
Cu1036     N1044   2.055       .  S
N1037      N1038   1.320       .  A
N1037      C1041   1.337       .  A
N1038      C1039   1.345       .  A
C1039      C1040   1.379       .  A
C1039      H1042   1.082       .  S
C1040      C1041   1.377       .  A
C1041      H1043   1.080       .  S
N1044      N1045   1.324       .  A
N1044      C1048   1.340       .  A
N1045      C1046   1.339       .  A
C1046      C1047   1.376       .  A
C1046      H1049   1.082       .  S
C1047      C1048   1.377       .  A
C1048      H1050   1.082       .  S
N1051      N1052   1.322       .  A
N1051      C1055   1.342       .  A
N1051     Cu1059   2.053       .  S
N1052      C1053   1.345       .  A
N1052     Cu1058   2.081       .  S
C1053      C1054   1.384       .  A
C1053      H1056   1.081       .  S
C1054      C1055   1.377       .  A
C1055      H1057   1.082       .  S
Cu1058     N1061   2.081       .  S
Cu1059     N1069   2.051       .  S
Cu1060     N1062   2.064       .  S
Cu1060     N1068   2.063       .  S
N1061      N1062   1.323       .  A
N1061      C1065   1.345       .  A
N1062      C1063   1.344       .  A
C1063      C1064   1.378       .  A
C1063      H1066   1.082       .  S
C1064      C1065   1.382       .  A
C1065      H1067   1.081       .  S
N1068      N1069   1.321       .  A
N1068      C1072   1.343       .  A
N1069      C1070   1.341       .  A
C1070      C1071   1.379       .  A
C1070      H1073   1.082       .  S
C1071      C1072   1.382       .  A
C1072      H1074   1.082       .  S
O1075     Cu1083   1.992       .  S
O1075      C1085   1.276       .  A
O1076     Cu1083   1.993   1_545  S
O1076      C1086   1.276       .  A
O1077     Cu1083   2.000   1_545  S
O1077      C1087   1.277       .  A
O1078     Cu1083   2.002       .  S
O1078      C1088   1.277       .  A
O1079     Cu1084   2.001       .  S
O1079      C1088   1.277   1_545  A
O1080     Cu1084   2.000       .  S
O1080      C1087   1.277       .  A
O1081     Cu1084   1.993       .  S
O1081      C1086   1.276       .  A
O1082     Cu1084   1.993   1_565  S
O1082      C1085   1.276       .  A
Cu1083    Cu1084   2.380   1_565  S
C1085      C1429   1.456       .  S
C1086      C1233   1.456       .  S
C1087      C1257   1.462       .  S
C1088      C1405   1.463       .  S
N1089      N1090   1.322       .  A
N1089      C1093   1.353       .  A
N1089     Cu1097   2.105       .  S
N1090      C1091   1.342       .  A
N1090     Cu1096   2.062       .  S
C1091      C1092   1.378       .  A
C1091      H1094   1.080       .  S
C1092      C1093   1.390       .  A
C1092      C1146   1.483   1_565  S
C1093      H1095   1.082       .  S
Cu1096     N1099   2.062       .  S
Cu1097     N1107   2.107       .  S
Cu1098     N1100   2.102       .  S
Cu1098     N1106   2.103       .  S
N1099      N1100   1.322       .  A
N1099      C1103   1.344       .  A
N1100      C1101   1.350       .  A
C1101      C1102   1.389       .  A
C1101      H1104   1.082       .  S
C1102      C1103   1.380       .  A
C1103      H1105   1.080       .  S
N1106      N1107   1.326       .  A
N1106      C1110   1.350       .  A
N1107      C1108   1.350       .  A
C1108      C1109   1.388       .  A
C1108      H1111   1.082       .  S
C1109      C1148   1.487       .  S
C1109      C1110   1.387       .  A
C1110      H1112   1.082       .  S
N1113      N1114   1.323       .  A
N1113      C1117   1.353       .  A
N1113     Cu1121   2.113       .  S
N1114      C1115   1.343       .  A
N1114     Cu1120   2.062       .  S
C1115      C1116   1.378       .  A
C1115      H1118   1.080       .  S
C1116      C1117   1.391       .  A
C1116      C1143   1.484   1_565  S
C1117      H1119   1.082       .  S
Cu1120     N1123   2.063       .  S
Cu1121     N1131   2.114       .  S
Cu1122     N1124   2.090       .  S
Cu1122     N1130   2.091       .  S
N1123      N1124   1.322       .  A
N1123      C1127   1.345       .  A
N1124      C1125   1.348       .  A
C1125      C1126   1.386       .  A
C1125      H1128   1.082       .  S
C1126      C1127   1.380       .  A
C1127      H1129   1.080       .  S
N1130      N1131   1.325       .  A
N1130      C1134   1.349       .  A
N1131      C1132   1.351       .  A
C1132      C1133   1.390       .  A
C1132      H1135   1.082       .  S
C1133      C1150   1.486       .  S
C1133      C1134   1.384       .  A
C1134      H1136   1.082       .  S
C1137      H1138   1.112       .  S
C1137      C1143   1.536       .  S
C1137      C1142   1.537       .  S
C1137      C1141   1.527       .  S
C1139      H1140   1.112       .  S
C1139      C1145   1.539       .  S
C1139      C1144   1.532       .  S
C1139      C1146   1.538       .  S
C1141      C1216   1.469       .  S
C1144      C1250   1.472       .  S
C1147      C1199   1.488       .  S
C1147      C1148   1.418       .  A
C1147      C1152   1.410       .  A
C1148      C1149   1.409       .  A
C1149      C1150   1.409       .  A
C1149      H1154   1.085       .  S
C1150      C1151   1.417       .  A
C1151      C1175   1.488       .  S
C1151      C1152   1.410       .  A
C1152      H1153   1.085       .  S
N1155      N1156   1.321       .  A
N1155      C1159   1.352       .  A
N1155     Cu1163   2.103       .  S
N1156      C1157   1.341       .  A
N1156     Cu1162   2.054       .  S
C1157      C1158   1.377       .  A
C1157      H1160   1.080       .  S
C1158      C1159   1.390       .  A
C1158      C1212   1.480       .  S
C1159      H1161   1.082       .  S
Cu1162     N1165   2.054       .  S
Cu1163     N1173   2.105       .  S
Cu1164     N1166   2.107       .  S
Cu1164     N1172   2.109       .  S
N1165      N1166   1.322       .  A
N1165      C1169   1.343       .  A
N1166      C1167   1.351       .  A
C1167      C1168   1.390       .  A
C1167      H1170   1.082       .  S
C1168      C1169   1.377       .  A
C1169      H1171   1.080       .  S
N1172      N1173   1.326       .  A
N1172      C1176   1.351       .  A
N1173      C1174   1.350       .  A
C1174      C1175   1.387       .  A
C1174      H1177   1.082       .  S
C1175      C1176   1.387       .  A
C1176      H1178   1.082       .  S
N1179      N1180   1.323       .  A
N1179      C1183   1.353       .  A
N1179     Cu1187   2.115       .  S
N1180      C1181   1.344       .  A
N1180     Cu1186   2.064       .  S
C1181      C1182   1.378       .  A
C1181      H1184   1.080       .  S
C1182      C1183   1.391       .  A
C1182      C1209   1.486       .  S
C1183      H1185   1.082       .  S
Cu1186     N1189   2.064       .  S
Cu1187     N1197   2.116       .  S
Cu1188     N1190   2.092       .  S
Cu1188     N1196   2.092       .  S
N1189      N1190   1.322       .  A
N1189      C1193   1.344       .  A
N1190      C1191   1.348       .  A
C1191      C1192   1.387       .  A
C1191      H1194   1.081       .  S
C1192      C1193   1.379       .  A
C1193      H1195   1.081       .  S
N1196      N1197   1.325       .  A
N1196      C1200   1.349       .  A
N1197      C1198   1.352       .  A
C1198      C1199   1.391       .  A
C1198      H1201   1.082       .  S
C1199      C1200   1.384       .  A
C1200      H1202   1.082       .  S
C1203      H1204   1.112       .  S
C1203      C1209   1.536       .  S
C1203      C1208   1.538       .  S
C1203      C1207   1.529       .  S
C1205      H1206   1.112       .  S
C1205      C1211   1.539       .  S
C1205      C1210   1.530       .  S
C1205      C1212   1.538       .  S
C1207      C1412   1.468       .  S
C1210      C1398   1.472       .  S
N1213      N1214   1.321       .  A
N1213      C1217   1.345       .  A
N1213     Cu1221   2.056       .  S
N1214      C1215   1.339       .  A
N1214     Cu1220   2.063       .  S
C1215      C1216   1.380       .  A
C1215      H1218   1.079       .  S
C1216      C1217   1.379       .  A
C1217      H1219   1.082       .  S
Cu1220     N1223   2.063       .  S
Cu1221     N1231   2.058       .  S
Cu1222     N1224   2.056       .  S
Cu1222     N1230   2.058       .  S
N1223      N1224   1.320       .  A
N1223      C1227   1.339       .  A
N1224      C1225   1.346       .  A
C1225      C1226   1.380       .  A
C1225      H1228   1.082       .  S
C1226      C1227   1.379       .  A
C1226      C1382   1.469       .  S
C1227      H1229   1.079       .  S
N1230      N1231   1.323       .  A
N1230      C1234   1.341       .  A
N1231      C1232   1.342       .  A
C1232      C1233   1.379       .  A
C1232      H1235   1.082       .  S
C1233      C1234   1.378       .  A
C1234      H1236   1.082       .  S
N1237      N1238   1.323       .  A
N1237      C1241   1.344       .  A
N1237     Cu1245   2.059       .  S
N1238      C1239   1.345       .  A
N1238     Cu1244   2.087       .  S
C1239      C1240   1.384       .  A
C1239      H1242   1.081       .  S
C1240      C1241   1.377       .  A
C1240      C1379   1.471       .  S
C1241      H1243   1.082       .  S
Cu1244     N1247   2.087       .  S
Cu1245     N1255   2.059       .  S
Cu1246     N1248   2.057       .  S
Cu1246     N1254   2.057       .  S
N1247      N1248   1.322       .  A
N1247      C1251   1.346       .  A
N1248      C1249   1.343       .  A
C1249      C1250   1.377       .  A
C1249      H1252   1.082       .  S
C1250      C1251   1.384       .  A
C1251      H1253   1.081       .  S
N1254      N1255   1.321       .  A
N1254      C1258   1.342       .  A
N1255      C1256   1.343       .  A
C1256      C1257   1.381       .  A
C1256      H1259   1.082       .  S
C1257      C1258   1.381       .  A
C1258      H1260   1.082       .  S
N1261      N1262   1.323       .  A
N1261      C1265   1.353       .  A
N1261     Cu1269   2.113       .  S
N1262      C1263   1.343       .  A
N1262     Cu1268   2.061       .  S
C1263      C1264   1.377       .  A
C1263      H1266   1.080       .  S
C1264      C1265   1.391       .  A
C1264      C1318   1.484   1_545  S
C1265      H1267   1.082       .  S
Cu1268     N1271   2.062       .  S
Cu1269     N1279   2.114       .  S
Cu1270     N1272   2.091       .  S
Cu1270     N1278   2.092       .  S
N1271      N1272   1.322       .  A
N1271      C1275   1.345       .  A
N1272      C1273   1.348       .  A
C1273      C1274   1.387       .  A
C1273      H1276   1.082       .  S
C1274      C1275   1.379       .  A
C1275      H1277   1.080       .  S
N1278      N1279   1.325       .  A
N1278      C1282   1.349       .  A
N1279      C1280   1.351       .  A
C1280      C1281   1.390       .  A
C1280      H1283   1.082       .  S
C1281      C1319   1.487       .  S
C1281      C1282   1.384       .  A
C1282      H1284   1.082       .  S
N1285      N1286   1.322       .  A
N1285      C1289   1.353       .  A
N1285     Cu1293   2.106       .  S
N1286      C1287   1.342       .  A
N1286     Cu1292   2.062       .  S
C1287      C1288   1.378       .  A
C1287      H1290   1.080       .  S
C1288      C1289   1.390       .  A
C1288      C1315   1.483   1_545  S
C1289      H1291   1.082       .  S
Cu1292     N1295   2.062       .  S
Cu1293     N1303   2.108       .  S
Cu1294     N1296   2.100       .  S
Cu1294     N1302   2.102       .  S
N1295      N1296   1.322       .  A
N1295      C1299   1.344       .  A
N1296      C1297   1.350       .  A
C1297      C1298   1.388       .  A
C1297      H1300   1.082       .  S
C1298      C1299   1.379       .  A
C1299      H1301   1.080       .  S
N1302      N1303   1.326       .  A
N1302      C1306   1.350       .  A
N1303      C1304   1.350       .  A
C1304      C1305   1.388       .  A
C1304      H1307   1.082       .  S
C1305      C1323   1.487       .  S
C1305      C1306   1.386       .  A
C1306      H1308   1.082       .  S
C1309      H1310   1.112       .  S
C1309      C1315   1.539       .  S
C1309      C1314   1.539       .  S
C1309      C1313   1.531       .  S
C1311      H1312   1.112       .  S
C1311      C1317   1.537       .  S
C1311      C1316   1.527       .  S
C1311      C1318   1.536       .  S
C1313      C1388   1.472       .  S
C1316      C1422   1.468       .  S
C1319      C1320   1.417       .  A
C1319      C1324   1.409       .  A
C1320      C1347   1.488       .  S
C1320      C1321   1.410       .  A
C1321      C1322   1.410       .  A
C1321      H1326   1.085       .  S
C1322      C1371   1.488       .  S
C1322      C1323   1.418       .  A
C1323      C1324   1.409       .  A
C1324      H1325   1.085       .  S
N1327      N1328   1.322       .  A
N1327      C1331   1.352       .  A
N1327     Cu1335   2.104       .  S
N1328      C1329   1.341       .  A
N1328     Cu1334   2.055       .  S
C1329      C1330   1.377       .  A
C1329      H1332   1.080       .  S
C1330      C1331   1.390       .  A
C1330      C1381   1.481       .  S
C1331      H1333   1.082       .  S
Cu1334     N1337   2.055       .  S
Cu1335     N1345   2.106       .  S
Cu1336     N1338   2.107       .  S
Cu1336     N1344   2.109       .  S
N1337      N1338   1.322       .  A
N1337      C1341   1.343       .  A
N1338      C1339   1.351       .  A
C1339      C1340   1.390       .  A
C1339      H1342   1.082       .  S
C1340      C1341   1.378       .  A
C1341      H1343   1.080       .  S
N1344      N1345   1.326       .  A
N1344      C1348   1.351       .  A
N1345      C1346   1.350       .  A
C1346      C1347   1.387       .  A
C1346      H1349   1.082       .  S
C1347      C1348   1.387       .  A
C1348      H1350   1.082       .  S
N1351      N1352   1.323       .  A
N1351      C1355   1.353       .  A
N1351     Cu1359   2.115       .  S
N1352      C1353   1.343       .  A
N1352     Cu1358   2.063       .  S
C1353      C1354   1.378       .  A
C1353      H1356   1.080       .  S
C1354      C1355   1.391       .  A
C1354      C1384   1.485       .  S
C1355      H1357   1.082       .  S
Cu1358     N1361   2.063       .  S
Cu1359     N1369   2.116       .  S
Cu1360     N1362   2.092       .  S
Cu1360     N1368   2.092       .  S
N1361      N1362   1.322       .  A
N1361      C1365   1.345       .  A
N1362      C1363   1.348       .  A
C1363      C1364   1.386       .  A
C1363      H1366   1.081       .  S
C1364      C1365   1.380       .  A
C1365      H1367   1.081       .  S
N1368      N1369   1.325       .  A
N1368      C1372   1.349       .  A
N1369      C1370   1.352       .  A
C1370      C1371   1.391       .  A
C1370      H1373   1.082       .  S
C1371      C1372   1.384       .  A
C1372      H1374   1.082       .  S
C1375      H1376   1.112       .  S
C1375      C1381   1.537       .  S
C1375      C1380   1.539       .  S
C1375      C1379   1.530       .  S
C1377      H1378   1.112       .  S
C1377      C1383   1.538       .  S
C1377      C1382   1.529       .  S
C1377      C1384   1.537       .  S
N1385      N1386   1.323       .  A
N1385      C1389   1.344       .  A
N1385     Cu1393   2.060       .  S
N1386      C1387   1.345       .  A
N1386     Cu1392   2.087       .  S
C1387      C1388   1.384       .  A
C1387      H1390   1.081       .  S
C1388      C1389   1.377       .  A
C1389      H1391   1.082       .  S
Cu1392     N1395   2.087       .  S
Cu1393     N1403   2.059       .  S
Cu1394     N1396   2.062       .  S
Cu1394     N1402   2.062       .  S
N1395      N1396   1.323       .  A
N1395      C1399   1.345       .  A
N1396      C1397   1.344       .  A
C1397      C1398   1.378       .  A
C1397      H1400   1.082       .  S
C1398      C1399   1.384       .  A
C1399      H1401   1.081       .  S
N1402      N1403   1.321       .  A
N1402      C1406   1.343       .  A
N1403      C1404   1.343       .  A
C1404      C1405   1.381       .  A
C1404      H1407   1.082       .  S
C1405      C1406   1.381       .  A
C1406      H1408   1.082       .  S
N1409      N1410   1.320       .  A
N1409      C1413   1.346       .  A
N1409     Cu1417   2.057       .  S
N1410      C1411   1.339       .  A
N1410     Cu1416   2.062       .  S
C1411      C1412   1.379       .  A
C1411      H1414   1.080       .  S
C1412      C1413   1.379       .  A
C1413      H1415   1.082       .  S
Cu1416     N1419   2.062       .  S
Cu1417     N1427   2.058       .  S
Cu1418     N1420   2.056       .  S
Cu1418     N1426   2.058       .  S
N1419      N1420   1.321       .  A
N1419      C1423   1.339       .  A
N1420      C1421   1.345       .  A
C1421      C1422   1.379       .  A
C1421      H1424   1.082       .  S
C1422      C1423   1.379       .  A
C1423      H1425   1.079       .  S
N1426      N1427   1.323       .  A
N1426      C1430   1.342       .  A
N1427      C1428   1.341       .  A
C1428      C1429   1.378       .  A
C1428      H1431   1.082       .  S
C1429      C1430   1.379       .  A
C1430      H1432   1.082       .  S
