geometry optimzed in LAMMPS
_audit_creation_date              2020-12-01 
_audit_creation_method            'lammps2cif' 
_symmetry_space_group_name_H-M    'P1' 
_symmetry_Int_Tables_number       1 
_symmetry_cell_setting            triclinic 
loop_ 
_symmetry_equiv_pos_as_xyz 
  x,y,z 
_cell_length_a                    75.94009809 
_cell_length_b                    75.93085865785903 
_cell_length_c                    30.269697194575933 
_cell_angle_alpha                 90.0427861502305 
_cell_angle_beta                  89.92038600144929 
_cell_angle_gamma                 90.05018602176469 
loop_ 
_atom_site_label 
_atom_site_type_symbol 
_atom_site_fract_x 
_atom_site_fract_y 
_atom_site_fract_z 
_atom_site_charge 
Fe1        Fe  0.84748567  0.25855438  0.47477478     1.65800
Fe2        Fe  0.88594266  0.23933102  0.50572589     1.73200
Fe3        Fe  0.85476647  0.21471518  0.45377093     1.54400
O4          O  0.82868006  0.21751396  0.47302864    -0.82000
O5          O  0.89852004  0.22828053  0.45287196    -0.80300
O6          O  0.82580189  0.24512010  0.49606462    -0.84500
O7          O  0.84183668  0.25381549  0.40918881    -0.79300
O8          O  0.85920422  0.20154096  0.51167045    -0.81100
O9          O  0.89212626  0.26359698  0.47860064    -0.83800
C10         C  0.84483001  0.24125942  0.38239300     0.96900
C11         C  0.81986871  0.22969270  0.49121365     1.04400
O12         O  0.86269626  0.23757277  0.47807914    -1.12800
O13         O  0.87530000  0.25025447  0.56141182    -0.75200
O14         O  0.85153086  0.26526376  0.54007977    -0.78700
O15         O  0.85006944  0.22613847  0.39419703    -0.79400
C16         C  0.86216805  0.26002657  0.56957381     0.95800
O17         O  0.86722003  0.27513712  0.45355767    -0.77400
O18         O  0.88332786  0.21521422  0.53636453    -0.82600
C19         C  0.89484929  0.21468473  0.43050407     0.98500
C20         C  0.87218227  0.20275931  0.53764183     1.04400
O21         O  0.87958461  0.20781716  0.43056963    -0.78200
C22         C  0.88375229  0.27564277  0.45871312     1.02700
Fe23       Fe  0.66354582  0.25876263  0.55491939     1.65800
Fe24       Fe  0.62701286  0.23817753  0.51788669     1.73200
Fe25       Fe  0.65633196  0.21550184  0.58175032     1.54400
O26         O  0.68202703  0.21697900  0.55992721    -0.82000
O27         O  0.61258127  0.22421643  0.56387631    -0.80300
O28         O  0.68716886  0.24571142  0.55678830    -0.84500
O29         O  0.66183769  0.25818213  0.62160143    -0.79300
O30         O  0.65099390  0.19949722  0.52752013    -0.81100
O31         O  0.61822835  0.26065632  0.54884932    -0.83800
C32         C  0.66177388  0.24587673  0.64986236     0.96900
C33         C  0.69239358  0.22992133  0.55631233     1.04400
O34         O  0.64899621  0.23731311  0.55138307    -1.12800
O35         O  0.63874339  0.25206378  0.46691447    -0.75200
O36         O  0.66570790  0.26049769  0.48780075    -0.78700
O37         O  0.66180324  0.22955442  0.63954922    -0.79400
C38         C  0.65388475  0.25847634  0.45872738     0.95800
O39         O  0.64275088  0.27619973  0.55500872    -0.77400
O40         O  0.63342484  0.21568803  0.48435701    -0.82600
C41         C  0.61610765  0.21410010  0.59593957     0.98500
C42         C  0.64209770  0.20178945  0.49240598     1.04400
O43         O  0.63171629  0.21037322  0.60727615    -0.78200
C44         C  0.62617086  0.27488947  0.55753012     1.02700
Fe45       Fe  0.84669002  0.28163021  0.97727880     1.65800
Fe46       Fe  0.88289413  0.29954630  0.02249140     1.73200
Fe47       Fe  0.85653124  0.32432690  0.95580867     1.54400
O48         O  0.84982806  0.31150277  0.89680489    -0.82000
O49         O  0.87644204  0.32163138  0.05934177    -0.80300
O50         O  0.85105626  0.28270159  0.91156362    -0.84500
O51         O  0.82396634  0.29616140  0.97116002    -0.79300
O52         O  0.88176522  0.32678873  0.93103791    -0.81100
O53         O  0.86959272  0.28398329  0.06749100    -0.83800
C54         C  0.81927239  0.31203287  0.97621131     0.96900
C55         C  0.85089233  0.29543498  0.88461687     1.04400
O56         O  0.86201553  0.30206412  0.98557014    -1.12800
O57         O  0.89154490  0.27764955  0.98817141    -0.75200
O58         O  0.86655319  0.26295079  0.98073484    -0.78700
O59         O  0.83041647  0.32451238  0.97808510    -0.79400
C60         C  0.88321135  0.26368150  0.97863654     0.95800
O61         O  0.84207334  0.27975850  0.04341202    -0.77400
O62         O  0.89887159  0.31451966  0.98221256    -0.82600
C63         C  0.87121596  0.33678681  0.04711477     0.98500
C64         C  0.89681484  0.32367066  0.94758665     1.04400
O65         O  0.86387579  0.33962016  0.00996406    -0.78200
C66         C  0.85380745  0.27882651  0.07294200     1.02700
Fe67       Fe  0.66287097  0.28257699  0.05515254     1.65800
Fe68       Fe  0.62368848  0.30164630  0.03212176     1.73200
Fe69       Fe  0.65555932  0.32572545  0.08191155     1.54400
O70         O  0.66073137  0.31324048  0.14084772    -0.82000
O71         O  0.62439547  0.32717563  0.00784954    -0.80300
O72         O  0.67056429  0.28674616  0.11926169    -0.84500
O73         O  0.68371915  0.29667690  0.03030053    -0.79300
O74         O  0.63044789  0.33234419  0.10639138    -0.81100
O75         O  0.63332168  0.29297166  0.97247379    -0.83800
C76         C  0.69030290  0.31159594  0.03914859     0.96900
C77         C  0.66673434  0.29795123  0.14894069     1.04400
O78         O  0.64745608  0.30326365  0.05629013    -1.12800
O79         O  0.61906782  0.27606667  0.05318696    -0.75200
O80         O  0.64409368  0.26544829  0.07963654    -0.78700
O81         O  0.68189863  0.32309098  0.06137293    -0.79400
C82         C  0.62769565  0.26409684  0.07277997     0.95800
O83         O  0.65637116  0.27624307  0.99108142    -0.77400
O84         O  0.61246228  0.31019818  0.08995029    -0.82600
C85         C  0.63570720  0.33943458  0.00396504     0.98500
C86         C  0.61556069  0.32461064  0.10957112     1.04400
O87         O  0.65032697  0.33939940  0.02430319    -0.78200
C88         C  0.64554210  0.28220040  0.96288991     1.02700
Fe89       Fe  0.51625698  0.42730299  0.71896912     1.65800
Fe90       Fe  0.53556248  0.38860488  0.74782947     1.73200
Fe91       Fe  0.55960336  0.41963265  0.69236658     1.54400
O92         O  0.54699501  0.42450348  0.63290089    -0.82000
O93         O  0.55946212  0.39192047  0.77886455    -0.80300
O94         O  0.52010862  0.43331730  0.65344026    -0.84500
O95         O  0.53038393  0.44872432  0.73977490    -0.79300
O96         O  0.56637183  0.39465422  0.66937680    -0.81100
O97         O  0.52419254  0.39858545  0.80360993    -0.83800
C98         C  0.54560364  0.45478826  0.73204368     0.96900
C99         C  0.53167682  0.43034558  0.62399795     1.04400
O100        O  0.53711874  0.41183490  0.71966739    -1.12800
O101        O  0.51138937  0.38259777  0.72070993    -0.75200
O102        O  0.49914143  0.40777420  0.69910144    -0.78700
O103        O  0.55721476  0.44600075  0.71138430    -0.79400
C104        C  0.49885069  0.39117515  0.70339171     0.95800
O105        O  0.50983774  0.42292693  0.78413432    -0.77400
O106        O  0.54684620  0.37559786  0.69581746    -0.82600
C107        C  0.57211948  0.40287177  0.77856116     0.98500
C108        C  0.56010087  0.37916769  0.67216917     1.04400
O109        O  0.57371907  0.41502126  0.74990130    -0.78200
C110        C  0.51432518  0.41152547  0.81248121     1.02700
Fe111      Fe  0.51861812  0.60939595  0.81137117     1.65800
Fe112      Fe  0.53753985  0.64489278  0.76634172     1.73200
Fe113      Fe  0.56113558  0.61850598  0.83433360     1.54400
O114        O  0.54808125  0.61047794  0.89189468    -0.82000
O115        O  0.55847902  0.63635922  0.72889565    -0.80300
O116        O  0.51936883  0.61316331  0.87782624    -0.84500
O117        O  0.53296581  0.58637803  0.81738271    -0.79300
O118        O  0.56286650  0.64336893  0.86172047    -0.81100
O119        O  0.52063161  0.63271023  0.72199963    -0.83800
C120        C  0.54883144  0.58181798  0.81079026     0.96900
C121        C  0.53208715  0.61152818  0.90463252     1.04400
O122        O  0.53921318  0.62428422  0.80411018    -1.12800
O123        O  0.51646957  0.65478085  0.80180426    -0.75200
O124        O  0.50075390  0.63019760  0.80719387    -0.78700
O125        O  0.56130273  0.59297527  0.80898726    -0.79400
C126        C  0.50200395  0.64689930  0.80920471     0.95800
O127        O  0.51721489  0.60498590  0.74467851    -0.77400
O128        O  0.55446625  0.65989520  0.80463676    -0.82600
C129        C  0.57384090  0.63266952  0.74260684     0.98500
C130        C  0.56214028  0.65799239  0.84155126     1.04400
O131        O  0.57679820  0.62684518  0.78140504    -0.78200
C132        C  0.51608587  0.61681897  0.71538922     1.02700
Fe133      Fe  0.49189561  0.42570210  0.21738888     1.65800
Fe134      Fe  0.47113129  0.38982995  0.25861814     1.73200
Fe135      Fe  0.44782400  0.41949462  0.19789773     1.54400
O136        O  0.45173500  0.44658330  0.20998110    -0.82000
O137        O  0.46125551  0.37543525  0.20668747    -0.80300
O138        O  0.47979316  0.44912364  0.22963512    -0.84500
O139        O  0.48786365  0.42795409  0.15109128    -0.79300
O140        O  0.43387085  0.41768269  0.25679182    -0.81100
O141        O  0.49633204  0.38200503  0.23883656    -0.83800
C142        C  0.47551102  0.42443418  0.12434699     0.96900
C143        C  0.46484067  0.45579585  0.22250306     1.04400
O144        O  0.47027318  0.41179598  0.22473872    -1.12800
O145        O  0.48073752  0.40331969  0.31274877    -0.75200
O146        O  0.49788005  0.42435408  0.28345189    -0.78700
O147        O  0.45977554  0.42114728  0.13636670    -0.79400
C148        C  0.49163992  0.41598959  0.31622039     0.95800
O149        O  0.50774656  0.40466481  0.20302633    -0.77400
O150        O  0.44591660  0.39309432  0.28319847    -0.82600
C151        C  0.44713240  0.37828065  0.18546927     0.98500
C152        C  0.43351230  0.40427036  0.28186040     1.04400
O153        O  0.44029449  0.39359354  0.18245316    -0.78200
C154        C  0.50852368  0.38888781  0.21593482     1.02700
Fe155      Fe  0.49878361  0.61280569  0.31480374     1.65800
Fe156      Fe  0.47954833  0.65073556  0.28324772     1.73200
Fe157      Fe  0.45498172  0.61886541  0.32970174     1.54400
O158        O  0.45943738  0.59262068  0.31172384    -0.82000
O159        O  0.46959314  0.66234425  0.33907334    -0.80300
O160        O  0.48672725  0.59160364  0.28535379    -0.84500
O161        O  0.49182547  0.60421959  0.37744425    -0.79300
O162        O  0.44374157  0.62279490  0.26869433    -0.81100
O163        O  0.50493566  0.65579564  0.30596033    -0.83800
C164        C  0.47938211  0.60791516  0.40410860     0.96900
C165        C  0.47179315  0.58455538  0.29173437     1.04400
O166        O  0.47782134  0.62739122  0.30940494    -1.12800
O167        O  0.48900347  0.63984107  0.22660968    -0.75200
O168        O  0.50799238  0.61981316  0.25222686    -0.78700
O169        O  0.46494617  0.61472057  0.39168307    -0.79400
C170        C  0.50095643  0.62842821  0.22075769     0.95800
O171        O  0.51290074  0.63252311  0.34544006    -0.77400
O172        O  0.45452722  0.64958579  0.25573413    -0.82600
C173        C  0.45458070  0.65891540  0.35543554     0.98500
C174        C  0.44340237  0.63741120  0.24859695     1.04400
O175        O  0.44712884  0.64397532  0.35034609    -0.78200
C176        C  0.51516931  0.64829503  0.33321540     1.02700
Fe177      Fe  0.34911642  0.75301676  0.97416726     1.65800
Fe178      Fe  0.38750707  0.73340779  0.99959756     1.73200
Fe179      Fe  0.35604540  0.71029829  0.94504853     1.54400
O180        O  0.32980010  0.71356934  0.96549328    -0.82000
O181        O  0.39957348  0.72467876  0.94305995    -0.80300
O182        O  0.32908161  0.73898801  0.00214459    -0.84500
O183        O  0.33976235  0.74868673  0.91151431    -0.79300
O184        O  0.36060044  0.69567562  0.00136536    -0.81100
O185        O  0.39243741  0.75900273  0.97880655    -0.83800
C186        C  0.34443060  0.73845357  0.88058853     0.96900
C187        C  0.32209891  0.72450784  0.99096962     1.04400
O188        O  0.36422949  0.73220101  0.97296818    -1.12800
O189        O  0.37722865  0.74199593  0.05844906    -0.75200
O190        O  0.35634547  0.76061334  0.03693455    -0.78700
O191        O  0.35152909  0.72355990  0.88707543    -0.79400
C192        C  0.36593833  0.75385083  0.06659751     0.95800
O193        O  0.36806990  0.76877242  0.94650223    -0.77400
O194        O  0.38573456  0.70809223  0.02404260    -0.82600
C195        C  0.39618295  0.71109589  0.92022303     0.98500
C196        C  0.37425893  0.69592408  0.02549725     1.04400
O197        O  0.38107842  0.70373138  0.92083838    -0.78200
C198        C  0.38423226  0.77039862  0.95601079     1.02700
Fe199      Fe  0.16776122  0.75806452  0.06929598     1.65800
Fe200      Fe  0.13203283  0.74050523  0.02185234     1.73200
Fe201      Fe  0.15824609  0.71495555  0.08598432     1.54400
O202        O  0.18374681  0.71547669  0.06181724    -0.82000
O203        O  0.11634799  0.72411483  0.06003396    -0.80300
O204        O  0.19065210  0.74339221  0.07518515    -0.84500
O205        O  0.16294111  0.75592397  0.13472884    -0.79300
O206        O  0.15057826  0.70038977  0.03014513    -0.81100
O207        O  0.12290381  0.76120742  0.05903292    -0.83800
C208        C  0.16336845  0.74273833  0.16035122     0.96900
C209        C  0.19501488  0.72768118  0.06600754     1.04400
O210        O  0.15267491  0.73765111  0.05883529    -1.12800
O211        O  0.14522906  0.75734386  0.97870597    -0.75200
O212        O  0.17278310  0.76068800  0.00327702    -0.78700
O213        O  0.16533018  0.72694860  0.14640196    -0.79400
C214        C  0.16119594  0.76209286  0.97345108     0.95800
O215        O  0.14743983  0.77669689  0.06625605    -0.77400
O216        O  0.13924132  0.71970016  0.98230831    -0.82600
C217        C  0.11849641  0.71467944  0.09425267     0.98500
C218        C  0.14399700  0.70419327  0.99253919     1.04400
O219        O  0.13343999  0.71200649  0.11158090    -0.78200
C220        C  0.13075110  0.77544910  0.06828293     1.02700
Fe221      Fe  0.34810086  0.77668386  0.47471219     1.65800
Fe222      Fe  0.38434947  0.79793287  0.51131857     1.73200
Fe223      Fe  0.35417936  0.82016860  0.44825017     1.54400
O224        O  0.34829028  0.80630767  0.39040468    -0.82000
O225        O  0.37833281  0.82075125  0.54387688    -0.80300
O226        O  0.34895438  0.77768254  0.40784737    -0.84500
O227        O  0.32444770  0.78933298  0.47574898    -0.79300
O228        O  0.37862598  0.82536720  0.42122497    -0.81100
O229        O  0.37296154  0.78473414  0.56364929    -0.83800
C230        C  0.31868050  0.80490951  0.47678244     0.96900
C231        C  0.34856364  0.79004386  0.37975223     1.04400
O232        O  0.36219065  0.79840688  0.47823384    -1.12800
O233        O  0.39333712  0.77512815  0.48197612    -0.75200
O234        O  0.36904588  0.75962274  0.47177697    -0.78700
O235        O  0.32856943  0.81820270  0.47174459    -0.79400
C236        C  0.38561991  0.76101641  0.47108199     0.95800
O237        O  0.34671778  0.77453798  0.54198331    -0.77400
O238        O  0.39805801  0.81136020  0.46355577    -0.82600
C239        C  0.36940899  0.83449327  0.53616737     0.98500
C240        C  0.39432417  0.82139603  0.43147602     1.04400
O241        O  0.35987132  0.83639611  0.50198413    -0.78200
C242        C  0.35812577  0.77764242  0.57154471     1.02700
Fe243      Fe  0.16197180  0.77928720  0.57026087     1.65800
Fe244      Fe  0.12462341  0.80018388  0.53922860     1.73200
Fe245      Fe  0.15684614  0.82348172  0.58958673     1.54400
O246        O  0.16150962  0.81224138  0.64978175    -0.82000
O247        O  0.12688891  0.82511634  0.51255188    -0.80300
O248        O  0.16925449  0.78442479  0.63516857    -0.84500
O249        O  0.18380379  0.79132362  0.54625584    -0.79300
O250        O  0.13189881  0.83138672  0.61297629    -0.81100
O251        O  0.13506916  0.79000166  0.48233894    -0.83800
C252        C  0.19089854  0.80621771  0.55148786     0.96900
C253        C  0.16706207  0.79723057  0.66181640     1.04400
O254        O  0.14789326  0.80093083  0.56646071    -1.12800
O255        O  0.11819107  0.77531461  0.56166981    -0.75200
O256        O  0.14184045  0.76418934  0.59434964    -0.78700
O257        O  0.18290859  0.81902945  0.56975772    -0.79400
C258        C  0.12576642  0.76341014  0.58387098     0.95800
O259        O  0.15626639  0.77186571  0.50559172    -0.77400
O260        O  0.11286345  0.81031217  0.59446688    -0.82600
C261        C  0.13856294  0.83700205  0.50933493     0.98500
C262        C  0.11661007  0.82437193  0.61503153     1.04400
O263        O  0.15280970  0.83667316  0.53096153    -0.78200
C264        C  0.14657904  0.77819385  0.47518285     1.02700
Fe265      Fe  0.01880867  0.42554961  0.82355144     1.65800
Fe266      Fe  0.03761288  0.38777730  0.79202055     1.73200
Fe267      Fe  0.06236374  0.41854058  0.84638231     1.54400
O268        O  0.06115791  0.44371001  0.81938401    -0.82000
O269        O  0.05352779  0.37480580  0.83571605    -0.80300
O270        O  0.03241724  0.44869270  0.81887523    -0.84500
O271        O  0.02064918  0.42649502  0.89047494    -0.79300
O272        O  0.07672118  0.41069269  0.79072186    -0.81100
O273        O  0.01679653  0.38032403  0.83117865    -0.83800
C274        C  0.03358304  0.42806230  0.91676569     0.96900
C275        C  0.04814222  0.45402638  0.81578514     1.04400
O276        O  0.03979738  0.41066704  0.82081717    -1.12800
O277        O  0.02127790  0.39719851  0.74301957    -0.75200
O278        O  0.01627974  0.42557174  0.75618618    -0.78700
O279        O  0.04966119  0.42678546  0.90440056    -0.79400
C280        C  0.01634955  0.41237231  0.73056421     0.95800
O281        O  0.00108647  0.40487614  0.82981757    -0.77400
O282        O  0.05840137  0.39357937  0.75156349    -0.82600
C283        C  0.06367504  0.37883709  0.86718849     0.98500
C284        C  0.07286992  0.40177122  0.75631750     1.04400
O285        O  0.06730127  0.39466508  0.87708978    -0.78200
C286        C  0.00256562  0.38855007  0.83786531     1.02700
Fe287      Fe  0.01779391  0.61025464  0.72712296     1.65800
Fe288      Fe  0.03829055  0.64708772  0.76268591     1.73200
Fe289      Fe  0.06144400  0.61674333  0.70351558     1.54400
O290        O  0.05845484  0.59028908  0.72160169    -0.82000
O291        O  0.04695320  0.66039000  0.70813311    -0.80300
O292        O  0.03086675  0.58800734  0.74554332    -0.84500
O293        O  0.02141603  0.60533681  0.66089749    -0.79300
O294        O  0.07625134  0.62047600  0.76025843    -0.81100
O295        O  0.01258549  0.65355854  0.74499301    -0.83800
C296        C  0.03342307  0.60858228  0.63284134     0.96900
C297        C  0.04609152  0.58161583  0.73984168     1.04400
O298        O  0.03920626  0.62459568  0.73118987    -1.12800
O299        O  0.02978055  0.63473013  0.81903393    -0.75200
O300        O  0.01153330  0.61402749  0.79295589    -0.78700
O301        O  0.04896607  0.61296648  0.64375904    -0.79400
C302        C  0.01826358  0.62278424  0.82450075     0.95800
O303        O  0.00200984  0.63070454  0.70821393    -0.77400
O304        O  0.06387336  0.64509754  0.78541183    -0.82600
C305        C  0.06043295  0.65731117  0.68452729     0.98500
C306        C  0.07648017  0.63416432  0.78430655     1.04400
O307        O  0.06764562  0.64216647  0.68248495    -0.78200
C308        C  0.00070164  0.64640657  0.72164296     1.02700
Fe309      Fe  0.99517417  0.42871619  0.32577480     1.65800
Fe310      Fe  0.97593514  0.39405407  0.27789344     1.73200
Fe311      Fe  0.95184502  0.42106243  0.34385755     1.54400
O312        O  0.96470097  0.42758066  0.40325408    -0.82000
O313        O  0.95501710  0.40217089  0.23998101    -0.80300
O314        O  0.99345191  0.42309186  0.39091284    -0.84500
O315        O  0.98159257  0.45198485  0.33471064    -0.79300
O316        O  0.94771013  0.39608014  0.36876345    -0.81100
O317        O  0.99247267  0.40709323  0.23391195    -0.83800
C318        C  0.96624126  0.45727547  0.32518854     0.96900
C319        C  0.98039878  0.42471300  0.41666027     1.04400
O320        O  0.97410193  0.41456898  0.31563756    -1.12800
O321        O  0.99684045  0.38396949  0.31332869    -0.75200
O322        O  0.01288504  0.40814135  0.31939683    -0.78700
O323        O  0.95348579  0.44667172  0.32016892    -0.79400
C324        C  0.01134944  0.39154531  0.32140663     0.95800
O325        O  0.99740990  0.43425688  0.26002389    -0.77400
O326        O  0.95942109  0.37883088  0.31670963    -0.82600
C327        C  0.93983789  0.40759967  0.25116891     0.98500
C328        C  0.95000741  0.38107749  0.35099772     1.04400
O329        O  0.93659596  0.41430699  0.28893295    -0.78200
C330        C  0.99759795  0.42296402  0.22917418     1.02700
Fe331      Fe  0.99829826  0.61237210  0.22808038     1.65800
Fe332      Fe  0.97810078  0.65085871  0.25330412     1.73200
Fe333      Fe  0.95475252  0.61814454  0.20410990     1.54400
O334        O  0.96669265  0.61316247  0.14454860    -0.82000
O335        O  0.95348110  0.64865259  0.28126560    -0.80300
O336        O  0.99349033  0.60396301  0.16443663    -0.84500
O337        O  0.98527576  0.59133524  0.25505179    -0.79300
O338        O  0.94688847  0.64263123  0.17958249    -0.81100
O339        O  0.98835455  0.64162178  0.31167228    -0.83800
C340        C  0.97045978  0.58440065  0.24704645     0.96900
C341        C  0.98181768  0.60702767  0.13535423     1.04400
O342        O  0.97709145  0.62710900  0.22852290    -1.12800
O343        O  0.00275117  0.65661247  0.22811552    -0.75200
O344        O  0.01395036  0.63172127  0.20153280    -0.78700
O345        O  0.95866518  0.59226577  0.22484776    -0.79400
C346        C  0.01454610  0.64822969  0.20719350     0.95800
O347        O  0.00564194  0.61924969  0.29143944    -0.77400
O348        O  0.96768926  0.66195565  0.19744515    -0.82600
C349        C  0.94161261  0.63696474  0.28470846     0.98500
C350        C  0.95369586  0.65792568  0.17702870     1.04400
O351        O  0.94141790  0.62288523  0.26216819    -0.78200
C352        C  0.99956499  0.62973891  0.32030985     1.02700
Fe353      Fe  0.51899974  0.11034187  0.22534959     1.65800
Fe354      Fe  0.53897330  0.14887652  0.25000958     1.73200
Fe355      Fe  0.56246320  0.11644434  0.20065047     1.54400
O356        O  0.55873594  0.09015565  0.21994063    -0.82000
O357        O  0.54854444  0.15991139  0.19306015    -0.80300
O358        O  0.53230672  0.08934617  0.25115894    -0.84500
O359        O  0.52360167  0.10236059  0.16121785    -0.79300
O360        O  0.57578931  0.12093315  0.25888611    -0.81100
O361        O  0.51383445  0.15434616  0.22745933    -0.83800
C362        C  0.53510693  0.10597513  0.13198659     0.96900
C363        C  0.54694628  0.08222498  0.24223589     1.04400
O364        O  0.54008975  0.12515652  0.22548467    -1.12800
O365        O  0.52928261  0.13954405  0.30884518    -0.75200
O366        O  0.51203269  0.11702205  0.28928607    -0.78700
O367        O  0.55031054  0.11198327  0.14108542    -0.79400
C368        C  0.51796394  0.12774847  0.31788358     0.95800
O369        O  0.50288000  0.12958595  0.19989205    -0.77400
O370        O  0.56414107  0.14712053  0.27564696    -0.82600
C371        C  0.56313085  0.15647729  0.17464273     0.98500
C372        C  0.57610375  0.13552137  0.27935963     1.04400
O373        O  0.57032388  0.14136148  0.17771314    -0.78200
C374        C  0.50188019  0.14598854  0.20705283     1.02700
Fe375      Fe  0.51483895  0.92473711  0.31176321     1.65800
Fe376      Fe  0.53434550  0.88785663  0.27763430     1.73200
Fe377      Fe  0.55799217  0.91784073  0.33706043     1.54400
O378        O  0.55689110  0.94302431  0.31023183    -0.82000
O379        O  0.55096956  0.87447667  0.32036497    -0.80300
O380        O  0.52820873  0.94834894  0.31203364    -0.84500
O381        O  0.51585070  0.92350866  0.37846254    -0.79300
O382        O  0.57311214  0.91033000  0.28258850    -0.81100
O383        O  0.51354347  0.87940824  0.31567684    -0.83800
C384        C  0.52841869  0.92460726  0.40591061     0.96900
C385        C  0.54398250  0.95354616  0.30807251     1.04400
O386        O  0.53593866  0.91017982  0.30891739    -1.12800
O387        O  0.51733123  0.89773861  0.22964133    -0.75200
O388        O  0.51332076  0.92620225  0.24433117    -0.78700
O389        O  0.54461931  0.92549261  0.39460957    -0.79400
C390        C  0.51238686  0.91310890  0.21843011     0.95800
O391        O  0.49730234  0.90360935  0.31303068    -0.77400
O392        O  0.55502416  0.89508065  0.23818350    -0.82600
C393        C  0.56011461  0.87805583  0.35432297     0.98500
C394        C  0.56963946  0.90258618  0.24620362     1.04400
O395        O  0.56243723  0.89377083  0.36737163    -0.78200
C396        C  0.49892907  0.88722435  0.32045455     1.02700
Fe397      Fe  0.49623451  0.11235222  0.72482631     1.65800
Fe398      Fe  0.47638418  0.14881697  0.76583565     1.73200
Fe399      Fe  0.45231317  0.11941091  0.70428515     1.54400
O400        O  0.46462960  0.11479853  0.64370774    -0.82000
O401        O  0.45476777  0.14184682  0.80263784    -0.80300
O402        O  0.49350585  0.11325828  0.65822486    -0.84500
O403        O  0.48337347  0.08856156  0.72842837    -0.79300
O404        O  0.44608090  0.14446548  0.68108113    -0.81100
O405        O  0.49153375  0.13733331  0.81453486    -0.83800
C406        C  0.46767107  0.08301553  0.72959819     0.96900
C407        C  0.48070350  0.11427151  0.63151512     1.04400
O408        O  0.47485305  0.12684099  0.73170187    -1.12800
O409        O  0.49833029  0.15807300  0.73214591    -0.75200
O410        O  0.51317420  0.13346564  0.71945142    -0.78700
O411        O  0.45459706  0.09317238  0.72414084    -0.79400
C412        C  0.51215106  0.15011159  0.71964488     0.95800
O413        O  0.50046022  0.11084387  0.79145333    -0.77400
O414        O  0.46099245  0.16329853  0.72295261    -0.82600
C415        C  0.44095219  0.13273347  0.79657848     0.98500
C416        C  0.44992835  0.16010284  0.69262078     1.04400
O417        O  0.43799339  0.12393166  0.76158822    -0.78200
C418        C  0.49863981  0.12244277  0.82116944     1.02700
Fe419      Fe  0.49167226  0.92487394  0.81558894     1.65800
Fe420      Fe  0.47172873  0.88734933  0.78256714     1.73200
Fe421      Fe  0.44757847  0.91874792  0.83207041     1.54400
O422        O  0.45829248  0.92119001  0.89389784    -0.82000
O423        O  0.44641686  0.88911962  0.75701293    -0.80300
O424        O  0.48620426  0.92980729  0.88158880    -0.84500
O425        O  0.47926293  0.94726223  0.79508238    -0.79300
O426        O  0.43946906  0.89327480  0.84976051    -0.81100
O427        O  0.48102483  0.89868731  0.72627063    -0.83800
C428        C  0.46429923  0.95415877  0.80071837     0.96900
C429        C  0.47346556  0.92584316  0.90725083     1.04400
O430        O  0.47046905  0.91047628  0.81004391    -1.12800
O431        O  0.49721681  0.88123662  0.80208445    -0.75200
O432        O  0.50791071  0.90469990  0.83600837    -0.78700
O433        O  0.45159721  0.94561394  0.81783823    -0.79400
C434        C  0.50936388  0.88886692  0.82345654     0.95800
O435        O  0.49831325  0.92071449  0.74995915    -0.77400
O436        O  0.46231448  0.87545263  0.83861925    -0.82600
C437        C  0.43510549  0.90120132  0.75095014     0.98500
C438        C  0.44714738  0.87845941  0.85445998     1.04400
O439        O  0.43579350  0.91587933  0.77093962    -0.78200
C440        C  0.49191540  0.91111765  0.71933456     1.02700
Fe441      Fe  0.84709882  0.77506360  0.06120346     1.65800
Fe442      Fe  0.88254238  0.79556733  0.01885128     1.73200
Fe443      Fe  0.85414179  0.81811011  0.08534138     1.54400
O444        O  0.82851219  0.81685419  0.06127217    -0.82000
O445        O  0.89730687  0.81066694  0.06225699    -0.80300
O446        O  0.82348542  0.78819608  0.06770217    -0.84500
O447        O  0.85078653  0.77569449  0.12722818    -0.79300
O448        O  0.86105608  0.83437179  0.03239903    -0.81100
O449        O  0.89212357  0.77387289  0.05153929    -0.83800
C450        C  0.84921515  0.78824191  0.15453694     0.96900
C451        C  0.81802991  0.80382625  0.06279435     1.04400
O452        O  0.86126385  0.79644781  0.05489293    -1.12800
O453        O  0.87028668  0.78026533  0.97092127    -0.75200
O454        O  0.84311970  0.77379573  0.99488671    -0.78700
O455        O  0.84734676  0.80428945  0.14281574    -0.79400
C456        C  0.85468586  0.77461052  0.96483564     0.95800
O457        O  0.86804711  0.75760030  0.05677866    -0.77400
O458        O  0.87521344  0.81746089  0.98337600    -0.82600
C459        C  0.89426503  0.81928458  0.09743973     0.98500
C460        C  0.86874036  0.83210979  0.99536209     1.04400
O461        O  0.87882242  0.82183116  0.11228773    -0.78200
C462        C  0.88462027  0.75931590  0.05925670     1.02700
Fe463      Fe  0.66095986  0.77990867  0.97380956     1.65800
Fe464      Fe  0.62280725  0.80006456  0.99900681     1.73200
Fe465      Fe  0.65585683  0.82366129  0.95515448     1.54400
O466        O  0.68167398  0.81881206  0.97720885    -0.82000
O467        O  0.61260457  0.80907977  0.94028479    -0.80300
O468        O  0.68161332  0.79173300  0.00509428    -0.84500
O469        O  0.67097248  0.78588793  0.91156612    -0.79300
O470        O  0.65055863  0.83605330  0.01424166    -0.81100
O471        O  0.61809785  0.77426812  0.97915659    -0.83800
C472        C  0.66799732  0.79817896  0.88393382     0.96900
C473        C  0.68914964  0.80634297  0.99830220     1.04400
O474        O  0.64667045  0.80118523  0.97603066    -1.12800
O475        O  0.63236379  0.79125380  0.05811737    -0.75200
O476        O  0.65238039  0.77154883  0.03590702    -0.78700
O477        O  0.66129419  0.81282857  0.89499725    -0.79400
C478        C  0.64302410  0.77872624  0.06594025     0.95800
O479        O  0.64180653  0.76586408  0.94208361    -0.77400
O480        O  0.62336408  0.82571565  0.02296353    -0.82600
C481        C  0.61634791  0.82390242  0.92314391     0.98500
C482        C  0.63519095  0.83719181  0.03029606     1.04400
O483        O  0.63117480  0.83147552  0.92986644    -0.78200
C484        C  0.62601708  0.76354073  0.95386579     1.02700
Fe485      Fe  0.85178708  0.75866201  0.56271829     1.65800
Fe486      Fe  0.89026544  0.73821813  0.53835311     1.73200
Fe487      Fe  0.85683515  0.71485685  0.58287371     1.54400
O488        O  0.85152119  0.72587670  0.64301616    -0.82000
O489        O  0.88850480  0.71343763  0.51080158    -0.80300
O490        O  0.84308478  0.75328810  0.62607029    -0.84500
O491        O  0.83046946  0.74638541  0.53469682    -0.79300
O492        O  0.88131464  0.70643780  0.60695204    -0.81100
O493        O  0.88120358  0.74818602  0.47977673    -0.83800
C494        C  0.82327967  0.73156370  0.54099221     0.96900
C495        C  0.84525298  0.74080363  0.65362456     1.04400
O496        O  0.86625438  0.73736188  0.56149149    -1.12800
O497        O  0.89601337  0.76298479  0.56226161    -0.75200
O498        O  0.87128202  0.77396240  0.59010694    -0.78700
O499        O  0.83100342  0.71929741  0.56190919    -0.79400
C500        C  0.88771999  0.77474806  0.58335542     0.95800
O501        O  0.85902572  0.76586628  0.49954329    -0.77400
O502        O  0.90059273  0.72804903  0.59549423    -0.82600
C503        C  0.87633651  0.70232765  0.50389421     0.98500
C504        C  0.89645213  0.71337727  0.61250037     1.04400
O505        O  0.86164525  0.70265787  0.52364724    -0.78200
C506        C  0.86925702  0.75929722  0.47065531     1.02700
Fe507      Fe  0.66610089  0.76113394  0.47378016     1.65800
Fe508      Fe  0.63190444  0.74122104  0.52286820     1.73200
Fe509      Fe  0.65809731  0.71800886  0.45313080     1.54400
O510        O  0.66483093  0.73085028  0.39443992    -0.82000
O511        O  0.64098495  0.72032244  0.55967293    -0.80300
O512        O  0.66073065  0.75942388  0.40812952    -0.84500
O513        O  0.68952625  0.74734859  0.46580854    -0.79300
O514        O  0.63290449  0.71531335  0.42794691    -0.81100
O515        O  0.64462954  0.75823240  0.56644422    -0.83800
C516        C  0.69479706  0.73166708  0.47224032     0.96900
C517        C  0.66185200  0.74653830  0.38156961     1.04400
O518        O  0.65211532  0.73996244  0.48363627    -1.12800
O519        O  0.62117285  0.76207486  0.48806281    -0.75200
O520        O  0.64498451  0.77871714  0.47959141    -0.78700
O521        O  0.68406306  0.71884857  0.47578840    -0.79400
C522        C  0.62835868  0.77672514  0.47879982     0.95800
O523        O  0.67158132  0.76355938  0.53980482    -0.77400
O524        O  0.61666693  0.72404080  0.48533263    -0.82600
C525        C  0.64487733  0.70504080  0.54562112     0.98500
C526        C  0.61836427  0.71601735  0.44866736     1.04400
O527        O  0.65082207  0.70226903  0.50682122    -0.78200
C528        C  0.66034381  0.76382514  0.57080522     1.02700
Fe529      Fe  0.34796974  0.27816766  0.56090601     1.65800
Fe530      Fe  0.38303862  0.29858054  0.51712222     1.73200
Fe531      Fe  0.35450050  0.32193762  0.58158025     1.54400
O532        O  0.32829103  0.31951836  0.56267447    -0.82000
O533        O  0.39778199  0.31468288  0.55747366    -0.80300
O534        O  0.32400752  0.29073988  0.56706179    -0.84500
O535        O  0.35230406  0.27979621  0.62705341    -0.79300
O536        O  0.35901566  0.33691166  0.52444982    -0.81100
O537        O  0.39289775  0.27751977  0.55299025    -0.83800
C538        C  0.35242620  0.29260168  0.65407255     0.96900
C539        C  0.31814315  0.30627079  0.56332818     1.04400
O540        O  0.36173945  0.29984061  0.55284026    -1.12800
O541        O  0.37089649  0.28257843  0.47083452    -0.75200
O542        O  0.34374876  0.27589324  0.49437474    -0.78700
O543        O  0.35060438  0.30868978  0.64206856    -0.79400
C544        C  0.35535508  0.27686453  0.46427992     0.95800
O545        O  0.36905967  0.26086031  0.55675732    -0.77400
O546        O  0.37524621  0.31981797  0.47971200    -0.82600
C547        C  0.39476248  0.32505338  0.58940005     0.98500
C548        C  0.36714106  0.33408791  0.48811020     1.04400
O549        O  0.37938384  0.32807478  0.60371683    -0.78200
C550        C  0.38549685  0.26293229  0.56129752     1.02700
Fe551      Fe  0.16042898  0.27853970  0.47350890     1.65800
Fe552      Fe  0.12260550  0.29924035  0.50219339     1.73200
Fe553      Fe  0.15537579  0.32279171  0.45453668     1.54400
O554        O  0.18133374  0.31869448  0.47548254    -0.82000
O555        O  0.11161027  0.30920322  0.44621734    -0.80300
O556        O  0.18265811  0.29075552  0.49663203    -0.84500
O557        O  0.16726571  0.28347275  0.40843588    -0.79300
O558        O  0.15065429  0.33580037  0.51357914    -0.81100
O559        O  0.11615096  0.27433511  0.47941479    -0.83800
C560        C  0.16551167  0.29634405  0.38181064     0.96900
C561        C  0.18955446  0.30585619  0.49280154     1.04400
O562        O  0.14625316  0.30011755  0.47670508    -1.12800
O563        O  0.13245813  0.28926480  0.55955207    -0.75200
O564        O  0.15474433  0.27189359  0.53844332    -0.78700
O565        O  0.16057760  0.31160563  0.39396195    -0.79400
C566        C  0.14444837  0.27810767  0.56782796     0.95800
O567        O  0.14026997  0.26279068  0.45020937    -0.77400
O568        O  0.12443810  0.32422512  0.52899429    -0.82600
C569        C  0.11544342  0.32351493  0.42702276     0.98500
C570        C  0.13600455  0.33614654  0.53368902     1.04400
O571        O  0.13063939  0.33061112  0.43035137    -0.78200
C572        C  0.12392597  0.26218079  0.45844024     1.02700
Fe573      Fe  0.34665421  0.25352298  0.06070424     1.65800
Fe574      Fe  0.38563795  0.23424702  0.03774446     1.73200
Fe575      Fe  0.35348743  0.21044066  0.08698404     1.54400
O576        O  0.34901146  0.22285875  0.14613190    -0.82000
O577        O  0.38451986  0.20873510  0.01348689    -0.80300
O578        O  0.33801275  0.24878688  0.12428874    -0.84500
O579        O  0.32595683  0.23968397  0.03347923    -0.79300
O580        O  0.37862298  0.20307285  0.10983730    -0.81100
O581        O  0.37642163  0.24322864  0.97802180    -0.83800
C582        C  0.31892205  0.22512708  0.04415148     0.96900
C583        C  0.34238128  0.23787470  0.15420900     1.04400
O584        O  0.36182744  0.23276406  0.06147244    -1.12800
O585        O  0.39054379  0.25962355  0.05999538    -0.75200
O586        O  0.36558349  0.26975897  0.08832977    -0.78700
O587        O  0.32701504  0.21386117  0.06781329    -0.79400
C588        C  0.38205002  0.27103824  0.08201934     0.95800
O589        O  0.35397625  0.26065104  0.99700162    -0.77400
O590        O  0.39650367  0.22548244  0.09548595    -0.82600
C591        C  0.37314002  0.19651041  0.00987235     0.98500
C592        C  0.39356021  0.21067539  0.11314584     1.04400
O593        O  0.35826870  0.19690547  0.02910531    -0.78200
C594        C  0.36471666  0.25455482  0.96852682     1.02700
Fe595      Fe  0.16365116  0.25590379  0.97487524     1.65800
Fe596      Fe  0.12876390  0.23766209  0.02400531     1.73200
Fe597      Fe  0.15306727  0.21372772  0.95207383     1.54400
O598        O  0.16028792  0.22674477  0.89400910    -0.82000
O599        O  0.13797406  0.21666969  0.05987672    -0.80300
O600        O  0.15795933  0.25538110  0.90939796    -0.84500
O601        O  0.18629484  0.24096933  0.96575711    -0.79300
O602        O  0.12752992  0.21280964  0.92780049    -0.81100
O603        O  0.14207055  0.25458119  0.06639646    -0.83800
C604        C  0.19056004  0.22499357  0.97234434     0.96900
C605        C  0.15824847  0.24271774  0.88216317     1.04400
O606        O  0.14851552  0.23563590  0.98370420    -1.12800
O607        O  0.11852707  0.25880994  0.98967393    -0.75200
O608        O  0.14331437  0.27408143  0.98214544    -0.78700
O609        O  0.17908113  0.21280279  0.97464593    -0.79400
C610        C  0.12658424  0.27309865  0.98129184     0.95800
O611        O  0.16948687  0.25731435  0.04083770    -0.77400
O612        O  0.11263476  0.22082507  0.98802049    -0.82600
C613        C  0.14056104  0.20123263  0.04504373     0.98500
C614        C  0.11340950  0.21349408  0.95033599     1.04400
O615        O  0.14528355  0.19820166  0.00535317    -0.78200
C616        C  0.15809705  0.25903459  0.07111557     1.02700
Fe617      Fe  0.99236159  0.11293286  0.81540943     1.65800
Fe618      Fe  0.97248886  0.15073020  0.78752867     1.73200
Fe619      Fe  0.94887055  0.11849876  0.83606337     1.54400
O620        O  0.95357122  0.09227169  0.81659307    -0.82000
O621        O  0.96311528  0.16210056  0.84417041    -0.80300
O622        O  0.97995302  0.09234144  0.78462226    -0.84500
O623        O  0.98610987  0.10320288  0.87701603    -0.79300
O624        O  0.93650114  0.12253294  0.77653172    -0.81100
O625        O  0.99797460  0.15591063  0.80910242    -0.83800
C626        C  0.97462243  0.10692569  0.90614416     0.96900
C627        C  0.96548948  0.08477696  0.79351503     1.04400
O628        O  0.97125023  0.12734807  0.81319040    -1.12800
O629        O  0.98142253  0.14028181  0.72966952    -0.75200
O630        O  0.00116083  0.12078252  0.75343925    -0.78700
O631        O  0.95999737  0.11413223  0.89693208    -0.79400
C632        C  0.99371445  0.12934628  0.72261937     0.95800
O633        O  0.00654700  0.13241566  0.84693576    -0.77400
O634        O  0.94724158  0.14926824  0.76217274    -0.82600
C635        C  0.94833118  0.15874515  0.86182966     0.98500
C636        C  0.93591868  0.13715955  0.75652444     1.04400
O637        O  0.94093906  0.14366867  0.85804196    -0.78200
C638        C  0.00840415  0.14841472  0.83593170     1.02700
Fe639      Fe  0.99590993  0.92681881  0.73077889     1.65800
Fe640      Fe  0.97607739  0.89138741  0.77404012     1.73200
Fe641      Fe  0.95280652  0.91959716  0.70928555     1.54400
O642        O  0.95407183  0.94507376  0.73462760    -0.82000
O643        O  0.96064568  0.87675561  0.73171275    -0.80300
O644        O  0.98245327  0.95025542  0.72334431    -0.84500
O645        O  0.99474973  0.92222920  0.66544185    -0.79300
O646        O  0.93681818  0.91188959  0.76200669    -0.81100
O647        O  0.99769051  0.88186802  0.74001428    -0.83800
C648        C  0.98199863  0.92396862  0.63893203     0.96900
C649        C  0.96693216  0.95567081  0.73063472     1.04400
O650        O  0.97469618  0.91260463  0.73848857    -1.12800
O651        O  0.99151748  0.90398968  0.82068970    -0.75200
O652        O  0.99755335  0.93128555  0.79665561    -0.78700
O653        O  0.96622639  0.92683735  0.65167080    -0.79400
C654        C  0.99679612  0.91973654  0.82672701     0.95800
O655        O  0.01360702  0.90616149  0.73595562    -0.77400
O656        O  0.95433622  0.89843661  0.81073055    -0.82600
C657        C  0.95181411  0.87972673  0.69693293     0.98500
C658        C  0.93936200  0.90407013  0.79866353     1.04400
O659        O  0.94927656  0.89507998  0.68164171    -0.78200
C660        C  0.01219576  0.88958194  0.73284094     1.02700
Fe661      Fe  0.01239239  0.10958961  0.31432684     1.65800
Fe662      Fe  0.03273832  0.14482426  0.26901561     1.73200
Fe663      Fe  0.05595187  0.11690605  0.33561041     1.54400
O664        O  0.04281958  0.11129543  0.39488877    -0.82000
O665        O  0.05485696  0.13797244  0.23431622    -0.80300
O666        O  0.01404972  0.11336595  0.38026019    -0.84500
O667        O  0.02553113  0.08589455  0.31948530    -0.79300
O668        O  0.06055365  0.14206402  0.35957898    -0.81100
O669        O  0.01813459  0.13156308  0.22133324    -0.83800
C670        C  0.04117502  0.08034135  0.31536262     0.96900
C671        C  0.02677652  0.11250949  0.40718130     1.04400
O672        O  0.03386880  0.12375830  0.30601589    -1.12800
O673        O  0.01067300  0.15450526  0.29980812    -0.75200
O674        O  0.99486469  0.13045880  0.31143145    -0.78700
O675        O  0.05427415  0.09076831  0.31439567    -0.79400
C676        C  0.99635947  0.14705672  0.31004828     0.95800
O677        O  0.00959528  0.10539956  0.24816809    -0.77400
O678        O  0.04740715  0.16031910  0.31224068    -0.82600
C679        C  0.06936686  0.13096345  0.24494708     0.98500
C680        C  0.05724549  0.15748344  0.34547007     1.04400
O681        O  0.07173481  0.12272419  0.28107656    -0.78200
C682        C  0.01134915  0.11630254  0.21682460     1.02700
Fe683      Fe  0.01362387  0.92189387  0.23158131     1.65800
Fe684      Fe  0.03495235  0.88398825  0.25877638     1.73200
Fe685      Fe  0.05769725  0.91719190  0.20682565     1.54400
O686        O  0.04530906  0.92381742  0.14851350    -0.82000
O687        O  0.05794642  0.88846367  0.29282745    -0.80300
O688        O  0.01708070  0.92789495  0.16676662    -0.84500
O689        O  0.02598883  0.94463938  0.25094903    -0.79300
O690        O  0.06508402  0.89318732  0.17809625    -0.81100
O691        O  0.02187593  0.89266992  0.31370223    -0.83800
C692        C  0.04121825  0.95129432  0.24763898     0.96900
C693        C  0.02950370  0.92771549  0.13880612     1.04400
O694        O  0.03545404  0.90770390  0.23233056    -1.12800
O695        O  0.01180543  0.87640515  0.22853835    -0.75200
O696        O  0.99771164  0.90120358  0.21245987    -0.78700
O697        O  0.05412360  0.94276718  0.23143887    -0.79400
C698        C  0.99851748  0.88452973  0.21364796     0.95800
O699        O  0.00787425  0.91751013  0.29652657    -0.77400
O700        O  0.04817250  0.87232179  0.20745716    -0.82600
C701        C  0.07068253  0.89927519  0.29166247     0.98500
C702        C  0.06019256  0.87718233  0.18113945     1.04400
O703        O  0.07221903  0.91127819  0.26270753    -0.78200
C704        C  0.01225704  0.90568801  0.32371174     1.02700
C705        C  0.01871707  0.00227922  0.33167947    -0.18100
C706        C  0.01881157  0.02027110  0.34153830    -0.20300
C707        C  0.03165019  0.03139509  0.32319123     0.20400
C708        C  0.04482402  0.02425052  0.29562317    -0.03200
C709        C  0.04471955  0.00602154  0.28561770    -0.06300
C710        C  0.03147247  0.99507639  0.30337413     0.20700
C711        C  0.05758842  0.99884270  0.25710706     0.18800
C712        C  0.07060676  0.00998546  0.23948370    -0.17700
C713        C  0.07072958  0.02804565  0.24945496    -0.20000
C714        C  0.05780681  0.03537679  0.27715778     0.20300
C715        C  0.05726445  0.05366708  0.28554230    -0.33000
C716        C  0.04363812  0.06095671  0.31131324     0.01000
C717        C  0.03115941  0.04961097  0.33080820    -0.24300
C718        C  0.03093541  0.97719608  0.29183680    -0.28900
C719        C  0.04344508  0.96987919  0.26269674     0.06700
C720        C  0.05695185  0.98077777  0.24601289    -0.27600
H721        H  0.00848969  0.99402854  0.34572054     0.11400
H722        H  0.00864868  0.02554129  0.36292804     0.12500
H723        H  0.08060202  0.00476672  0.21753018     0.11600
H724        H  0.08080133  0.03633711  0.23491956     0.10800
H725        H  0.06690336  0.06228816  0.27034133     0.16200
H726        H  0.02073778  0.05505089  0.35117647     0.12100
H727        H  0.02051074  0.96898202  0.30513659     0.15000
H728        H  0.06656926  0.97536495  0.22327928     0.14800
C729        C  0.98443721  0.92797111  0.02451043    -0.18100
C730        C  0.97982157  0.92628759  0.98024537    -0.20300
C731        C  0.99280597  0.92725012  0.94747611     0.20400
C732        C  0.01052322  0.93058899  0.95895181    -0.03200
C733        C  0.01520071  0.93205240  0.00360430    -0.06300
C734        C  0.00209739  0.93045715  0.03638094     0.20700
C735        C  0.03304679  0.93422616  0.01551825     0.18800
C736        C  0.04591549  0.93588684  0.98247224    -0.17700
C737        C  0.04123505  0.93464970  0.93792672    -0.20000
C738        C  0.02365193  0.93163302  0.92593871     0.20300
C739        C  0.01898747  0.92891889  0.88177456    -0.33000
C740        C  0.00154468  0.92475080  0.87113296     0.01000
C741        C  0.98847913  0.92422756  0.90354429    -0.24300
C742        C  0.00695230  0.93038319  0.08058180    -0.28900
C743        C  0.02478587  0.93124020  0.09268637     0.06700
C744        C  0.03776054  0.93377587  0.06020307    -0.27600
H745        H  0.97428256  0.92675491  0.04952492     0.11400
H746        H  0.96618428  0.92382560  0.97169754     0.12500
H747        H  0.05964075  0.93768196  0.99110012     0.11600
H748        H  0.05142682  0.93554479  0.91293223     0.10800
H749        H  0.02894668  0.92919902  0.85606281     0.16200
H750        H  0.97501428  0.92106344  0.89449548     0.12100
H751        H  0.99682283  0.92850490  0.10543145     0.15000
H752        H  0.05150844  0.93467765  0.06952640     0.14800
C753        C  0.96565837  0.92824339  0.48122045    -0.18100
C754        C  0.96985756  0.92546332  0.43675934    -0.20300
C755        C  0.98604818  0.91789163  0.42496674     0.20400
C756        C  0.99807739  0.91292894  0.45821291    -0.03200
C757        C  0.99395603  0.91593489  0.50278038    -0.06300
C758        C  0.97766219  0.92362105  0.51443664     0.20700
C759        C  0.00619955  0.91126219  0.53567127     0.18800
C760        C  0.02228497  0.90348010  0.52411204    -0.17700
C761        C  0.02632141  0.90037777  0.47994864    -0.20000
C762        C  0.01432445  0.90508906  0.44693335     0.20300
C763        C  0.01844982  0.90228288  0.40275247    -0.33000
C764        C  0.00676261  0.90754689  0.36960561     0.01000
C765        C  0.99057927  0.91533486  0.38059658    -0.24300
C766        C  0.97369984  0.92649620  0.55908838    -0.28900
C767        C  0.98596756  0.92193806  0.59178511     0.06700
C768        C  0.00215973  0.91437173  0.57971162    -0.27600
H769        H  0.95308984  0.93410377  0.48961557     0.11400
H770        H  0.96046248  0.92926720  0.41159579     0.12500
H771        H  0.03175226  0.89980149  0.54925008     0.11600
H772        H  0.03883835  0.89439574  0.47158708     0.10800
H773        H  0.03105125  0.89651759  0.39403572     0.16200
H774        H  0.98158886  0.91935887  0.35468661     0.12100
H775        H  0.96116426  0.93224416  0.56833941     0.15000
H776        H  0.01161938  0.91053339  0.60474195     0.14800
C777        C  0.02575358  0.10547057  0.06224211    -0.18100
C778        C  0.02048099  0.10370993  0.01839879    -0.20300
C779        C  0.00253791  0.10306741  0.00773064     0.20400
C780        C  0.98971934  0.10348429  0.04144795    -0.03200
C781        C  0.99504828  0.10497695  0.08578531    -0.06300
C782        C  0.01314338  0.10644434  0.09595649     0.20700
C783        C  0.98228713  0.10580920  0.11971061     0.18800
C784        C  0.96434399  0.10465579  0.10895114    -0.17700
C785        C  0.95904139  0.10348664  0.06475663    -0.20000
C786        C  0.97162285  0.10323531  0.03072493     0.20300
C787        C  0.96649909  0.10351805  0.98617242    -0.33000
C788        C  0.97931790  0.10375525  0.95259840     0.01000
C789        C  0.99724404  0.10288733  0.96373360    -0.24300
C790        C  0.01830199  0.10961330  0.13943245    -0.28900
C791        C  0.00566475  0.11103638  0.17283308     0.06700
C792        C  0.98774439  0.10855930  0.16343164    -0.27600
H793        H  0.03967014  0.10647522  0.06969386     0.11400
H794        H  0.03043094  0.10339241  0.99270032     0.12500
H795        H  0.95439207  0.10519793  0.13462042     0.11600
H796        H  0.94511133  0.10316354  0.05714925     0.10800
H797        H  0.95265141  0.10410552  0.97767741     0.16200
H798        H  0.00722751  0.10321010  0.93807737     0.12100
H799        H  0.03212491  0.11141034  0.14728498     0.15000
H800        H  0.97808146  0.10969817  0.18970441     0.14800
C801        C  0.04198917  0.10779742  0.56627808    -0.18100
C802        C  0.03726448  0.11011552  0.61064727    -0.20300
C803        C  0.02046198  0.11640621  0.62190040     0.20400
C804        C  0.00818839  0.12006353  0.58817345    -0.03200
C805        C  0.01284756  0.11748424  0.54364944    -0.06300
C806        C  0.02991751  0.11155491  0.53249477     0.20700
C807        C  0.00046762  0.12111307  0.51028223     0.18800
C808        C  0.98357815  0.12712690  0.52131941    -0.17700
C809        C  0.97903350  0.12986699  0.56535662    -0.20000
C810        C  0.99128230  0.12651269  0.59885037     0.20300
C811        C  0.98690652  0.12963594  0.64283740    -0.33000
C812        C  0.99904937  0.12619133  0.67662356     0.01000
C813        C  0.01572838  0.11930671  0.66614015    -0.24300
C814        C  0.03460457  0.10971873  0.48778596    -0.28900
C815        C  0.02227494  0.11350575  0.45450570     0.06700
C816        C  0.00520614  0.11897729  0.46624520    -0.27600
H817        H  0.05510878  0.10315518  0.55838328     0.11400
H818        H  0.04682767  0.10719753  0.63614395     0.12500
H819        H  0.97396477  0.12991689  0.49586208     0.11600
H820        H  0.96597296  0.13471912  0.57320690     0.10800
H821        H  0.97388355  0.13458503  0.65082775     0.16200
H822        H  0.02507609  0.11651968  0.69225230     0.12100
H823        H  0.04776083  0.10543844  0.47895895     0.15000
H824        H  0.99558837  0.12205902  0.44097874     0.14800
C825        C  0.93607302  0.00814332  0.79168117    -0.18100
C826        C  0.93587209  0.02628890  0.80047139    -0.20300
C827        C  0.94896292  0.03739395  0.78306266     0.20400
C828        C  0.96212020  0.03013871  0.75555155    -0.03200
C829        C  0.96239903  0.01182263  0.74694521    -0.06300
C830        C  0.94941775  0.00070922  0.76547377     0.20700
C831        C  0.97598415  0.00458730  0.72085708     0.18800
C832        C  0.98879587  0.01568586  0.70232950    -0.17700
C833        C  0.98844910  0.03378877  0.71058837    -0.20000
C834        C  0.97534353  0.04108659  0.73769754     0.20300
C835        C  0.97564875  0.05903095  0.74847089    -0.33000
C836        C  0.96312157  0.06632764  0.77761734     0.01000
C837        C  0.94950195  0.05546592  0.79384863    -0.24300
C838        C  0.95035224  0.98235338  0.75858569    -0.28900
C839        C  0.96434426  0.97502063  0.73419086     0.06700
C840        C  0.97685850  0.98633097  0.71473245    -0.27600
H841        H  0.92596669  0.99986763  0.80612086     0.11400
H842        H  0.92561943  0.03159532  0.82153185     0.12500
H843        H  0.99926754  0.01032263  0.68204694     0.11600
H844        H  0.99867112  0.04203828  0.69651998     0.10800
H845        H  0.98611195  0.06720970  0.73523737     0.16200
H846        H  0.93975008  0.06088730  0.81620194     0.12100
H847        H  0.94065934  0.97376208  0.77367169     0.15000
H848        H  0.98755783  0.98087215  0.69532499     0.14800
C849        C  0.09246178  0.13991961  0.09518873    -0.18100
C850        C  0.10305513  0.14988245  0.06677023    -0.20300
C851        C  0.11549746  0.16173372  0.08389196     0.20400
C852        C  0.11778279  0.16308641  0.13002928    -0.03200
C853        C  0.10745815  0.15265325  0.15865929    -0.06300
C854        C  0.09439696  0.14137986  0.14115931     0.20700
C855        C  0.10947629  0.15430168  0.20482727     0.18800
C856        C  0.12188180  0.16620068  0.22191901    -0.17700
C857        C  0.13178629  0.17685250  0.19356917    -0.20000
C858        C  0.12965876  0.17557689  0.14767256     0.20300
C859        C  0.13837516  0.18727159  0.11925740    -0.33000
C860        C  0.13565686  0.18634960  0.07348616     0.01000
C861        C  0.12486266  0.17305025  0.05584975    -0.24300
C862        C  0.08278913  0.13267486  0.16996046    -0.28900
C863        C  0.08441485  0.13475411  0.21590339     0.06700
C864        C  0.09823253  0.14494875  0.23313003    -0.27600
H865        H  0.08250087  0.13134787  0.08122087     0.11400
H866        H  0.10108881  0.14877286  0.03142996     0.12500
H867        H  0.12348270  0.16770932  0.25727320     0.11600
H868        H  0.14083985  0.18637365  0.20760316     0.10800
H869        H  0.14657647  0.19765737  0.13279370     0.16200
H870        H  0.12250593  0.17256327  0.02054434     0.12100
H871        H  0.07185680  0.12514271  0.15673812     0.15000
H872        H  0.09908680  0.14702463  0.26852437     0.14800
C873        C  0.05179686  0.19668498  0.82275775    -0.18100
C874        C  0.06675524  0.20557196  0.83803716    -0.20300
C875        C  0.07467096  0.20071664  0.87807172     0.20400
C876        C  0.06721836  0.18694190  0.90335754    -0.03200
C877        C  0.05233727  0.17772743  0.88747694    -0.06300
C878        C  0.04462717  0.18262235  0.84693437     0.20700
C879        C  0.04533486  0.16349030  0.91185776     0.18800
C880        C  0.05290168  0.15898908  0.95261397    -0.17700
C881        C  0.06740198  0.16836925  0.96881948    -0.20000
C882        C  0.07475612  0.18223128  0.94425407     0.20300
C883        C  0.08962423  0.19134482  0.95956953    -0.33000
C884        C  0.09745005  0.20463081  0.93383658     0.01000
C885        C  0.08996413  0.20927522  0.89312363    -0.24300
C886        C  0.03005170  0.17321853  0.83092887    -0.28900
C887        C  0.02332304  0.15866752  0.85428751     0.06700
C888        C  0.03100931  0.15392181  0.89486428    -0.27600
H889        H  0.04598695  0.20064553  0.79164750     0.11400
H890        H  0.07218255  0.21620464  0.81841392     0.12500
H891        H  0.04763475  0.14818164  0.97189973     0.11600
H892        H  0.07300983  0.16462672  0.00035347     0.10800
H893        H  0.09540696  0.18783153  0.99108979     0.16200
H894        H  0.09591122  0.21967069  0.87360405     0.12100
H895        H  0.02423106  0.17694099  0.79961555     0.15000
H896        H  0.02576840  0.14285752  0.91332416     0.14800
C897        C  0.24107266  0.19829079  0.05347547    -0.18100
C898        C  0.25911130  0.19853099  0.06397915    -0.20300
C899        C  0.27094913  0.20915993  0.04010844     0.20400
C900        C  0.26450287  0.21926602  0.00448510    -0.03200
C901        C  0.24629879  0.21908199  0.99399700    -0.06300
C902        C  0.23443892  0.20873315  0.01892881     0.20700
C903        C  0.23991031  0.22979490  0.95949999     0.18800
C904        C  0.25173049  0.23997472  0.93465306    -0.17700
C905        C  0.26967467  0.24007789  0.94482856    -0.20000
C906        C  0.27613540  0.23004975  0.98017746     0.20300
C907        C  0.29392322  0.23115349  0.99239799    -0.33000
C908        C  0.30048616  0.22171191  0.02887332     0.01000
C909        C  0.28894842  0.21034755  0.05194845    -0.24300
C910        C  0.21615490  0.20961306  0.00998670    -0.28900
C911        C  0.20968726  0.22109029  0.97713410     0.06700
C912        C  0.22175506  0.23074219  0.95148540    -0.27600
H913        H  0.23225621  0.19021932  0.07300668     0.11400
H914        H  0.26375056  0.19061397  0.09136721     0.12500
H915        H  0.24703590  0.24818327  0.90786674     0.11600
H916        H  0.27845050  0.24834159  0.92566162     0.10800
H917        H  0.30262270  0.23979388  0.97402527     0.16200
H918        H  0.29377837  0.20302598  0.08016980     0.12100
H919        H  0.20695653  0.20221779  0.03012204     0.15000
H920        H  0.21690640  0.23950472  0.92596214     0.14800
C921        C  0.06794239  0.23489077  0.40828480    -0.18100
C922        C  0.05857101  0.22028487  0.39237865    -0.20300
C923        C  0.06680637  0.20380320  0.38817523     0.20400
C924        C  0.08460580  0.20201572  0.40086325    -0.03200
C925        C  0.09417773  0.21684985  0.41593819    -0.06300
C926        C  0.08580581  0.23337606  0.41966393     0.20700
C927        C  0.11218480  0.21517641  0.42666053     0.18800
C928        C  0.12030363  0.19862110  0.42366422    -0.17700
C929        C  0.11075415  0.18388888  0.40958623    -0.20000
C930        C  0.09296951  0.18547259  0.39769420     0.20300
C931        C  0.08355839  0.17089046  0.38166680    -0.33000
C932        C  0.06605627  0.17266483  0.36717401     0.01000
C933        C  0.05771172  0.18917480  0.37073910    -0.24300
C934        C  0.09550346  0.24809503  0.43416652    -0.28900
C935        C  0.11360268  0.24662044  0.44370459     0.06700
C936        C  0.12180616  0.23007962  0.43988516    -0.27600
H937        H  0.06127417  0.24745893  0.41102879     0.11400
H938        H  0.04489479  0.22190845  0.38311320     0.12500
H939        H  0.13408236  0.19707709  0.43202456     0.11600
H940        H  0.11737503  0.17128157  0.40732290     0.10800
H941        H  0.09013480  0.15827238  0.37855532     0.16200
H942        H  0.04420726  0.19062210  0.35977647     0.12100
H943        H  0.08906800  0.26078910  0.43707452     0.15000
H944        H  0.13566030  0.22876291  0.44780884     0.14800
C945        C  0.16668222  0.23010238  0.72323764    -0.18100
C946        C  0.16509453  0.23530585  0.67911188    -0.20300
C947        C  0.15661229  0.25113385  0.66830164     0.20400
C948        C  0.14945179  0.26171957  0.70220102    -0.03200
C949        C  0.15114910  0.25654498  0.74658612    -0.06300
C950        C  0.15990559  0.24069898  0.75721780     0.20700
C951        C  0.14427611  0.26735346  0.78033617     0.18800
C952        C  0.13541957  0.28296979  0.76961893    -0.17700
C953        C  0.13367036  0.28805923  0.72560760    -0.20000
C954        C  0.14074256  0.27758690  0.69182532     0.20300
C955        C  0.13927504  0.28276108  0.64783231    -0.33000
C956        C  0.14641466  0.27235090  0.61388078     0.01000
C957        C  0.15515600  0.25659001  0.62425617    -0.24300
C958        C  0.16198011  0.23592628  0.80165258    -0.28900
C959        C  0.15570175  0.24701157  0.83528267     0.06700
C960        C  0.14662073  0.26252766  0.82433306    -0.27600
H961        H  0.17338807  0.21788336  0.73082502     0.11400
H962        H  0.17057354  0.22699180  0.65344506     0.12500
H963        H  0.13000360  0.29132425  0.79528865     0.11600
H964        H  0.12689906  0.30024430  0.71800494     0.10800
H965        H  0.13266342  0.29502982  0.64007031     0.16200
H966        H  0.16061372  0.24849215  0.59809836     0.12100
H967        H  0.16884457  0.22387379  0.81007853     0.15000
H968        H  0.14136792  0.27091806  0.85019134     0.14800
C969        C  0.15141097  0.30527862  0.18260463    -0.18100
C970        C  0.15268295  0.31067315  0.22663739    -0.20300
C971        C  0.16117996  0.29999501  0.25783484     0.20400
C972        C  0.16915773  0.28410416  0.24423884    -0.03200
C973        C  0.16809116  0.27877939  0.19974455    -0.06300
C974        C  0.15876370  0.28920912  0.16909582     0.20700
C975        C  0.17563655  0.26261612  0.18639686     0.18800
C976        C  0.18456514  0.25220186  0.21732617    -0.17700
C977        C  0.18543905  0.25739147  0.26156311    -0.20000
C978        C  0.17750757  0.27313945  0.27543653     0.20300
C979        C  0.17710186  0.27771069  0.32023155    -0.33000
C980        C  0.16847117  0.29310912  0.33426993     0.01000
C981        C  0.16109730  0.30450640  0.30269309    -0.24300
C982        C  0.15628325  0.28297913  0.12604131    -0.28900
C983        C  0.16327505  0.26666880  0.11331312     0.06700
C984        C  0.17337940  0.25677793  0.14288713    -0.27600
H985        H  0.14432979  0.31347160  0.15935264     0.11400
H986        H  0.14655779  0.32294267  0.23655628     0.12500
H987        H  0.19044227  0.23979042  0.20755048     0.11600
H988        H  0.19197004  0.24888778  0.28512306     0.10800
H989        H  0.18296462  0.26894738  0.34433379     0.16200
H990        H  0.15438639  0.31639170  0.31321700     0.12100
H991        H  0.14843542  0.29048009  0.10280500     0.15000
H992        H  0.17855630  0.24409073  0.13272425     0.14800
C993        C  0.34744281  0.29951233  0.85837057    -0.18100
C994        C  0.34608680  0.30508962  0.81441782    -0.20300
C995        C  0.35193434  0.29424238  0.77982839     0.20400
C996        C  0.35953107  0.27773116  0.78981160    -0.03200
C997        C  0.36103647  0.27217419  0.83412263    -0.06300
C998        C  0.35478674  0.28304584  0.86854970     0.20700
C999        C  0.36860640  0.25565426  0.84389496     0.18800
C1000       C  0.37465656  0.24486454  0.80945689    -0.17700
C1001       C  0.37306655  0.25031572  0.76558538    -0.20000
C1002       C  0.36541386  0.26664148  0.75550257     0.20300
C1003       C  0.36325172  0.27190004  0.71161977    -0.33000
C1004       C  0.35523076  0.28810584  0.70114818     0.01000
C1005       C  0.34999210  0.29942746  0.73547330    -0.24300
C1006       C  0.35592429  0.27720682  0.91245851    -0.28900
C1007       C  0.36349930  0.26076758  0.92237030     0.06700
C1008       C  0.36990080  0.25013513  0.88788815    -0.27600
H1009       H  0.34265363  0.30805946  0.88443203     0.11400
H1010       H  0.34025965  0.31780048  0.80744658     0.12500
H1011       H  0.38049663  0.23215583  0.81643599     0.11600
H1012       H  0.37769023  0.24168747  0.73949363     0.10800
H1013       H  0.36774729  0.26322686  0.68544574     0.16200
H1014       H  0.34396126  0.31197644  0.72768515     0.12100
H1015       H  0.35106759  0.28551943  0.93894059     0.15000
H1016       H  0.37563398  0.23739849  0.89524260     0.14800
C1017       C  0.35501900  0.28963773  0.30617781    -0.18100
C1018       C  0.35263827  0.28423837  0.26255107    -0.20300
C1019       C  0.34715519  0.26699028  0.25324848     0.20400
C1020       C  0.34389018  0.25506156  0.28800043    -0.03200
C1021       C  0.34585452  0.26064359  0.33203198    -0.06300
C1022       C  0.35167015  0.27795163  0.34100850     0.20700
C1023       C  0.34235195  0.24883857  0.36700708     0.18800
C1024       C  0.33718425  0.23149394  0.35752062    -0.17700
C1025       C  0.33571336  0.22580463  0.31370533    -0.20000
C1026       C  0.33903894  0.23747194  0.27874534     0.20300
C1027       C  0.33798450  0.23182727  0.23470035    -0.33000
C1028       C  0.34114120  0.24375617  0.20018553     0.01000
C1029       C  0.34538206  0.26135027  0.20966675    -0.24300
C1030       C  0.35437603  0.28315095  0.38467278    -0.28900
C1031       C  0.35090725  0.27147973  0.41941363     0.06700
C1032       C  0.34454993  0.25448812  0.41075804    -0.27600
H1033       H  0.35951769  0.30294804  0.31268451     0.11400
H1034       H  0.35533333  0.29345267  0.23608352     0.12500
H1035       H  0.33456025  0.22225613  0.38397790     0.11600
H1036       H  0.33199503  0.21226991  0.30716327     0.10800
H1037       H  0.33489682  0.21820110  0.22723062     0.16200
H1038       H  0.34827092  0.27044282  0.18300228     0.12100
H1039       H  0.35930021  0.29627464  0.39179905     0.15000
H1040       H  0.34212532  0.24549760  0.43790186     0.14800
C1041       C  0.26543362  0.33724972  0.50386912    -0.18100
C1042       C  0.24739153  0.33712904  0.49374986    -0.20300
C1043       C  0.23653334  0.32320445  0.50773726     0.20400
C1044       C  0.24393037  0.30949193  0.53315891    -0.03200
C1045       C  0.26210415  0.30963495  0.54346520    -0.06300
C1046       C  0.27299378  0.32344935  0.52827175     0.20700
C1047       C  0.26944219  0.29565178  0.56795022     0.18800
C1048       C  0.25858166  0.28196396  0.58300096    -0.17700
C1049       C  0.24066106  0.28179664  0.57271910    -0.20000
C1050       C  0.23328124  0.29536620  0.54735049     0.20300
C1051       C  0.21551681  0.29474993  0.53512594    -0.33000
C1052       C  0.20801762  0.30803405  0.50866492     0.01000
C1053       C  0.21856804  0.32245987  0.49586272    -0.24300
C1054       C  0.29128362  0.32288778  0.53654137    -0.28900
C1055       C  0.29875349  0.30850231  0.55922195     0.06700
C1056       C  0.28760489  0.29523491  0.57573279    -0.27600
H1057       H  0.27352704  0.34799965  0.49198769     0.11400
H1058       H  0.24198563  0.34781513  0.47431696     0.12500
H1059       H  0.26402170  0.27117383  0.60202189     0.11600
H1060       H  0.23262527  0.27090071  0.58401924     0.10800
H1061       H  0.20758265  0.28364959  0.54566806     0.16200
H1062       H  0.21298548  0.33277228  0.47548619     0.12100
H1063       H  0.29974776  0.33318353  0.52373121     0.15000
H1064       H  0.29316300  0.28423991  0.59382032     0.14800
C1065       C  0.76501414  0.70176067  0.54736412    -0.18100
C1066       C  0.74695908  0.70167541  0.53755304    -0.20300
C1067       C  0.73970883  0.71444571  0.50935703     0.20400
C1068       C  0.75096366  0.72702779  0.48968189    -0.03200
C1069       C  0.76919581  0.72707166  0.49945281    -0.06300
C1070       C  0.77621059  0.71457460  0.52910399     0.20700
C1071       C  0.78026359  0.74001100  0.48075239     0.18800
C1072       C  0.77321393  0.75235167  0.45117310    -0.17700
C1073       C  0.75519779  0.75235008  0.44165893    -0.20000
C1074       C  0.74392439  0.73999000  0.46144179     0.20300
C1075       C  0.72567085  0.74079810  0.45471297    -0.33000
C1076       C  0.71417922  0.72882335  0.47562016     0.01000
C1077       C  0.72137417  0.71528486  0.50180959    -0.24300
C1078       C  0.79411790  0.71551747  0.54109916    -0.28900
C1079       C  0.80503836  0.72894264  0.52420662     0.06700
C1080       C  0.79804655  0.74082684  0.49309453    -0.27600
H1081       H  0.77015992  0.69199024  0.57000984     0.11400
H1082       H  0.73859535  0.69185337  0.55283437     0.12500
H1083       H  0.78155573  0.76228088  0.43624286     0.11600
H1084       H  0.75001218  0.76229966  0.41956367     0.10800
H1085       H  0.72032833  0.75111336  0.43391461     0.16200
H1086       H  0.71267459  0.70598767  0.51800176     0.12100
H1087       H  0.79934272  0.70626487  0.56498218     0.15000
H1088       H  0.80633671  0.75107927  0.47934605     0.14800
C1089       C  0.95104847  0.81671627  0.65790987    -0.18100
C1090       C  0.94197225  0.80191667  0.64241108    -0.20300
C1091       C  0.92453125  0.80342681  0.62761343     0.20400
C1092       C  0.91624043  0.82006737  0.62776029    -0.03200
C1093       C  0.92552743  0.83504851  0.64236229    -0.06300
C1094       C  0.94291197  0.83330344  0.65818469     0.20700
C1095       C  0.91730250  0.85171842  0.64180512     0.18800
C1096       C  0.89990548  0.85326045  0.62683050    -0.17700
C1097       C  0.89059303  0.83835856  0.61313220    -0.20000
C1098       C  0.89861312  0.82172783  0.61367456     0.20300
C1099       C  0.88930289  0.80673908  0.60032446    -0.33000
C1100       C  0.89751568  0.79018584  0.59959233     0.01000
C1101       C  0.91518119  0.78861539  0.61285613    -0.24300
C1102       C  0.95169755  0.84811195  0.67484679    -0.28900
C1103       C  0.94346464  0.86467177  0.67479885     0.06700
C1104       C  0.92645332  0.86647613  0.65733364    -0.27600
H1105       H  0.96440715  0.81518549  0.66980420     0.11400
H1106       H  0.94852878  0.78924097  0.64249482     0.12500
H1107       H  0.89341626  0.86596260  0.62629062     0.11600
H1108       H  0.87710003  0.83983577  0.60215902     0.10800
H1109       H  0.87575718  0.80800196  0.58948352     0.16200
H1110       H  0.92153111  0.77582509  0.61231535     0.12100
H1111       H  0.96485039  0.84675679  0.68831431     0.15000
H1112       H  0.92001600  0.87922183  0.65789877     0.14800
C1113       C  0.63553398  0.79020972  0.22409759    -0.18100
C1114       C  0.63835961  0.78576849  0.26812890    -0.20300
C1115       C  0.64692839  0.77002063  0.27892230     0.20400
C1116       C  0.65248797  0.75842873  0.24531229    -0.03200
C1117       C  0.64966754  0.76294294  0.20076280    -0.06300
C1118       C  0.64122036  0.77894898  0.19030716     0.20700
C1119       C  0.65550847  0.75163205  0.16677514     0.18800
C1120       C  0.66379799  0.73569786  0.17784302    -0.17700
C1121       C  0.66648946  0.73114304  0.22220571    -0.20000
C1122       C  0.66102477  0.74249331  0.25622110     0.20300
C1123       C  0.66409138  0.73838120  0.30088383    -0.33000
C1124       C  0.65893578  0.75021445  0.33431097     0.01000
C1125       C  0.65017796  0.76584226  0.32288963    -0.24300
C1126       C  0.63879761  0.78362370  0.14623603    -0.28900
C1127       C  0.64485431  0.77269202  0.11204829     0.06700
C1128       C  0.65314032  0.75662190  0.12246056    -0.27600
H1129       H  0.62903235  0.80253473  0.21645181     0.11400
H1130       H  0.63398292  0.79473366  0.29376083     0.12500
H1131       H  0.66831027  0.72681749  0.15219351     0.11600
H1132       H  0.67301491  0.71883913  0.22988789     0.10800
H1133       H  0.67067559  0.72620519  0.30953564     0.16200
H1134       H  0.64575130  0.77485103  0.34841014     0.12100
H1135       H  0.63254186  0.79609225  0.13861487     0.15000
H1136       H  0.65780450  0.74809308  0.09622063     0.14800
C1137       C  0.68482631  0.75380489  0.71812812    -0.18100
C1138       C  0.68588093  0.75858022  0.76265705    -0.20300
C1139       C  0.67914598  0.77480149  0.77706775     0.20400
C1140       C  0.67177633  0.78657199  0.74610864    -0.03200
C1141       C  0.67052294  0.78168167  0.70131788    -0.06300
C1142       C  0.67690074  0.76511150  0.68741520     0.20700
C1143       C  0.66217945  0.79302426  0.67086136     0.18800
C1144       C  0.65589193  0.80944951  0.68502861    -0.17700
C1145       C  0.65733745  0.81438732  0.72934552    -0.20000
C1146       C  0.66494842  0.80290350  0.76017620     0.20300
C1147       C  0.66504281  0.80711742  0.80512393    -0.33000
C1148       C  0.67137794  0.79501689  0.83651424     0.01000
C1149       C  0.67890924  0.77909920  0.82211028    -0.24300
C1150       C  0.67451221  0.75983394  0.64349234    -0.28900
C1151       C  0.66549492  0.77073798  0.61388984     0.06700
C1152       C  0.65961721  0.78740058  0.62726073    -0.27600
H1153       H  0.68978895  0.74105499  0.70791501     0.11400
H1154       H  0.69161866  0.74942590  0.78597375     0.12500
H1155       H  0.64952823  0.81831912  0.66202642     0.11600
H1156       H  0.65205092  0.82697929  0.73973535     0.10800
H1157       H  0.65920942  0.81943845  0.81577673     0.16200
H1158       H  0.68388327  0.76972470  0.84600260     0.12100
H1159       H  0.67882585  0.74689021  0.63284104     0.15000
H1160       H  0.65255554  0.79567671  0.60409222     0.14800
C1161       C  0.87483010  0.74494719  0.31326670    -0.18100
C1162       C  0.87131249  0.74867166  0.26907447    -0.20300
C1163       C  0.86200018  0.76393292  0.25762141     0.20400
C1164       C  0.85588111  0.77545045  0.29076579    -0.03200
C1165       C  0.85930629  0.77161846  0.33536539    -0.06300
C1166       C  0.86900159  0.75640516  0.34652024     0.20700
C1167       C  0.85316804  0.78306296  0.36871513     0.18800
C1168       C  0.84357918  0.79816188  0.35715434    -0.17700
C1169       C  0.84039322  0.80210492  0.31275555    -0.20000
C1170       C  0.84661729  0.79091747  0.27930950     0.20300
C1171       C  0.84406400  0.79505333  0.23462013    -0.33000
C1172       C  0.85043682  0.78371958  0.20161273     0.01000
C1173       C  0.85906848  0.76804957  0.21345432    -0.24300
C1174       C  0.87267001  0.75285400  0.39076086    -0.28900
C1175       C  0.86655782  0.76414199  0.42417228     0.06700
C1176       C  0.85674180  0.77918317  0.41299945    -0.27600
H1177       H  0.88217197  0.73315960  0.32142937     0.11400
H1178       H  0.87605551  0.73972426  0.24380836     0.12500
H1179       H  0.83870696  0.80702325  0.38243868     0.11600
H1180       H  0.83317643  0.81396013  0.30456907     0.10800
H1181       H  0.83730773  0.80708432  0.22554685     0.16200
H1182       H  0.86414844  0.75928791  0.18814902     0.12100
H1183       H  0.87992557  0.74103427  0.39922392     0.15000
H1184       H  0.85188588  0.78785590  0.43874182     0.14800
C1185       C  0.83141869  0.78265255  0.77209239    -0.18100
C1186       C  0.83343155  0.78766156  0.81616904    -0.20300
C1187       C  0.83957439  0.77552082  0.84739974     0.20400
C1188       C  0.84289616  0.75792210  0.83473073    -0.03200
C1189       C  0.84089224  0.75289818  0.79034543    -0.06300
C1190       C  0.83558396  0.76546105  0.75873614     0.20700
C1191       C  0.84515891  0.73558792  0.77721784     0.18800
C1192       C  0.85042829  0.72319246  0.80887967    -0.17700
C1193       C  0.85236787  0.72815855  0.85301964    -0.20000
C1194       C  0.84907248  0.74557757  0.86597135     0.20300
C1195       C  0.85248028  0.75107710  0.90917408    -0.33000
C1196       C  0.84986987  0.76869063  0.92099977     0.01000
C1197       C  0.84309961  0.78079508  0.89069385    -0.24300
C1198       C  0.83562611  0.76094406  0.71400785    -0.28900
C1199       C  0.84127237  0.74416076  0.70047831     0.06700
C1200       C  0.84516066  0.73128538  0.73235962    -0.27600
H1201       H  0.82720537  0.79238695  0.74818566     0.11400
H1202       H  0.83068327  0.80115775  0.82557862     0.12500
H1203       H  0.85361999  0.70982041  0.79925809     0.11600
H1204       H  0.85695838  0.71852675  0.87674510     0.10800
H1205       H  0.85762942  0.74185835  0.93326828     0.16200
H1206       H  0.84105507  0.79437779  0.90060951     0.12100
H1207       H  0.83235083  0.77087634  0.68965864     0.15000
H1208       H  0.84928646  0.71822387  0.72224573     0.14800
C1209       C  0.73981106  0.78236958  0.08076543    -0.18100
C1210       C  0.75786907  0.78202917  0.08968999    -0.20300
C1211       C  0.76911034  0.79475611  0.07130263     0.20400
C1212       C  0.76207302  0.80818095  0.04446767    -0.03200
C1213       C  0.74380917  0.80853293  0.03547862    -0.06300
C1214       C  0.73269250  0.79546573  0.05339425     0.20700
C1215       C  0.73676223  0.82168930  0.00773286     0.18800
C1216       C  0.74803233  0.83449162  0.98975277    -0.17700
C1217       C  0.76612915  0.83415017  0.99868182    -0.20000
C1218       C  0.77332915  0.82099930  0.02573942     0.20300
C1219       C  0.79160174  0.82012237  0.03339300    -0.33000
C1220       C  0.79873599  0.80637265  0.05877918     0.01000
C1221       C  0.78732384  0.79396523  0.07828706    -0.24300
C1222       C  0.71473466  0.79542169  0.04270198    -0.28900
C1223       C  0.70761207  0.80820735  0.01403388     0.06700
C1224       C  0.71869156  0.82152180  0.99742709    -0.27600
H1225       H  0.73144767  0.77224102  0.09480323     0.11400
H1226       H  0.76308057  0.77165189  0.11042979     0.12500
H1227       H  0.74287588  0.84466256  0.96830998     0.11600
H1228       H  0.77454517  0.84407404  0.98391377     0.10800
H1229       H  0.80031436  0.82967278  0.01812105     0.16200
H1230       H  0.79268842  0.78342824  0.09830516     0.12100
H1231       H  0.70638312  0.78509420  0.05587740     0.15000
H1232       H  0.71341745  0.83133583  0.97510040     0.14800
C1233       C  0.90289739  0.88558680  0.97431379    -0.18100
C1234       C  0.91366985  0.89558095  0.94639947    -0.20300
C1235       C  0.91271160  0.89349550  0.90042062     0.20400
C1236       C  0.90018662  0.88177691  0.88224642    -0.03200
C1237       C  0.88963611  0.87133341  0.91047564    -0.06300
C1238       C  0.89121128  0.87308881  0.95672140     0.20700
C1239       C  0.87845751  0.85829127  0.89246818     0.18800
C1240       C  0.87692938  0.85675972  0.84641488    -0.17700
C1241       C  0.88703517  0.86743078  0.81841043    -0.20000
C1242       C  0.89905875  0.87962361  0.83602849     0.20300
C1243       C  0.91079253  0.88879250  0.80842663    -0.33000
C1244       C  0.92414609  0.89940575  0.82660602     0.01000
C1245       C  0.92478570  0.90203114  0.87248209    -0.24300
C1246       C  0.88214787  0.86141994  0.98458566    -0.28900
C1247       C  0.87235673  0.84741107  0.96679956     0.06700
C1248       C  0.87007096  0.84623256  0.92080173    -0.27600
H1249       H  0.90426823  0.88707790  0.00972119     0.11400
H1250       H  0.92312950  0.90459142  0.96087570     0.12500
H1251       H  0.86831676  0.84691687  0.83201050     0.11600
H1252       H  0.88599219  0.86562403  0.78302463     0.10800
H1253       H  0.91059008  0.88640658  0.77311203     0.16200
H1254       H  0.93524476  0.91000829  0.88649476     0.12100
H1255       H  0.88422741  0.86208994  0.01998051     0.15000
H1256       H  0.86266584  0.83529910  0.90707423     0.14800
C1257       C  0.93475061  0.88036507  0.18499878    -0.18100
C1258       C  0.92001892  0.87091590  0.17075931    -0.20300
C1259       C  0.92179743  0.85354498  0.15563722     0.20400
C1260       C  0.93850629  0.84541548  0.15596725    -0.03200
C1261       C  0.95334826  0.85487453  0.17104559    -0.06300
C1262       C  0.95147206  0.87253047  0.18482689     0.20700
C1263       C  0.97008150  0.84679404  0.17153833     0.18800
C1264       C  0.97175863  0.82925315  0.15739462    -0.17700
C1265       C  0.95709725  0.81998729  0.14157048    -0.20000
C1266       C  0.94045765  0.82802802  0.14014583     0.20300
C1267       C  0.92583882  0.81923707  0.12204648    -0.33000
C1268       C  0.90925166  0.82748325  0.12075956     0.01000
C1269       C  0.90725140  0.84440330  0.13881499    -0.24300
C1270       C  0.96634496  0.88211607  0.19789365    -0.28900
C1271       C  0.98310043  0.87424254  0.19832558     0.06700
C1272       C  0.98483238  0.85647311  0.18565445    -0.27600
H1273       H  0.93308523  0.89387095  0.19580843     0.11400
H1274       H  0.90727308  0.87732151  0.17074235     0.12500
H1275       H  0.98447891  0.82280095  0.15779715     0.11600
H1276       H  0.95881528  0.80659681  0.12995497     0.10800
H1277       H  0.92738103  0.80611516  0.10842384     0.16200
H1278       H  0.89451578  0.85083850  0.13757182     0.12100
H1279       H  0.96482386  0.89569387  0.20833845     0.15000
H1280       H  0.99768958  0.85027676  0.18608495     0.14800
C1281       C  0.58735914  0.87951943  0.88098426    -0.18100
C1282       C  0.57208294  0.88861565  0.86887851    -0.20300
C1283       C  0.55697213  0.87940887  0.85539043     0.20400
C1284       C  0.55750912  0.86087634  0.85230748    -0.03200
C1285       C  0.57292306  0.85167035  0.86477873    -0.06300
C1286       C  0.58779878  0.86104245  0.87993284     0.20700
C1287       C  0.57317900  0.83309104  0.86383630     0.18800
C1288       C  0.55837255  0.82393250  0.84813833    -0.17700
C1289       C  0.54319010  0.83305862  0.83527998    -0.20000
C1290       C  0.54246924  0.85150437  0.83819720     0.20300
C1291       C  0.52686764  0.86069075  0.82834864    -0.33000
C1292       C  0.52596690  0.87913887  0.83314576     0.01000
C1293       C  0.54123977  0.88838550  0.84596945    -0.24300
C1294       C  0.60252184  0.85179595  0.89575616    -0.28900
C1295       C  0.60243659  0.83326945  0.89778931     0.06700
C1296       C  0.58789122  0.82400990  0.88048393    -0.27600
H1297       H  0.59868459  0.88693325  0.89230880     0.11400
H1298       H  0.57197039  0.90286169  0.87098802     0.12500
H1299       H  0.55838303  0.80967563  0.84676248     0.11600
H1300       H  0.53183581  0.82564075  0.82412031     0.10800
H1301       H  0.51530305  0.85341788  0.81792515     0.16200
H1302       H  0.54088549  0.90261454  0.84880674     0.12100
H1303       H  0.61358344  0.85907608  0.90915321     0.15000
H1304       H  0.58773330  0.80974116  0.88155618     0.14800
C1305       C  0.40602731  0.18444765  0.58697192    -0.18100
C1306       C  0.39703838  0.19881528  0.56872153    -0.20300
C1307       C  0.40096552  0.21608211  0.58219334     0.20400
C1308       C  0.41411561  0.21888403  0.61432780    -0.03200
C1309       C  0.42304065  0.20434989  0.63314888    -0.06300
C1310       C  0.41902811  0.18704237  0.61929686     0.20700
C1311       C  0.43591592  0.20715115  0.66592345     0.18800
C1312       C  0.43976980  0.22440878  0.67960302    -0.17700
C1313       C  0.43108620  0.23879245  0.66065067    -0.20000
C1314       C  0.41827972  0.23619999  0.62790980     0.20300
C1315       C  0.40940968  0.25058089  0.60896510    -0.33000
C1316       C  0.39603752  0.24786803  0.57761483     0.01000
C1317       C  0.39186002  0.23056715  0.56448001    -0.24300
C1318       C  0.42800419  0.17266171  0.63815634    -0.28900
C1319       C  0.44091359  0.17531005  0.67097087     0.06700
C1320       C  0.44470177  0.19268486  0.68458943    -0.27600
H1321       H  0.40273772  0.17127154  0.57591791     0.11400
H1322       H  0.38700049  0.19641639  0.54404518     0.12500
H1323       H  0.44956616  0.22679264  0.70488935     0.11600
H1324       H  0.43435848  0.25196989  0.67174349     0.10800
H1325       H  0.41245711  0.26386254  0.61975997     0.16200
H1326       H  0.38151204  0.22841064  0.54042737     0.12100
H1327       H  0.42480536  0.15940320  0.62753314     0.15000
H1328       H  0.45447150  0.19500803  0.70999957     0.14800
C1329       C  0.37328940  0.16375687  0.87027256    -0.18100
C1330       C  0.38306011  0.15403446  0.83958598    -0.20300
C1331       C  0.39920749  0.14647854  0.85164928     0.20400
C1332       C  0.40504629  0.14774893  0.89582775    -0.03200
C1333       C  0.39516112  0.15748262  0.92680295    -0.06300
C1334       C  0.37948661  0.16601314  0.91354856     0.20700
C1335       C  0.40171831  0.15986454  0.97000923     0.18800
C1336       C  0.41740584  0.15156995  0.98276884    -0.17700
C1337       C  0.42724947  0.14200979  0.95200168    -0.20000
C1338       C  0.42148226  0.14059565  0.90812817     0.20300
C1339       C  0.43255801  0.13360254  0.87558344    -0.33000
C1340       C  0.42740479  0.13375270  0.83106540     0.01000
C1341       C  0.41033799  0.13910685  0.81960644    -0.24300
C1342       C  0.37106294  0.17768029  0.94272291    -0.28900
C1343       C  0.37839408  0.18102855  0.98432872     0.06700
C1344       C  0.39321806  0.17159171  0.99852167    -0.27600
H1345       H  0.36126162  0.17012837  0.85964085     0.11400
H1346       H  0.37838376  0.15312738  0.80584349     0.12500
H1347       H  0.42249438  0.15317760  0.01598738     0.11600
H1348       H  0.43975634  0.13645179  0.96196899     0.10800
H1349       H  0.44575033  0.12942495  0.88423472     0.16200
H1350       H  0.40648862  0.13936104  0.78510142     0.12100
H1351       H  0.35972371  0.18518452  0.93187892     0.15000
H1352       H  0.39882675  0.17434867  0.03077575     0.14800
C1353       C  0.48796965  0.02227532  0.70603584    -0.18100
C1354       C  0.48731509  0.00429967  0.71556691    -0.20300
C1355       C  0.47465539  0.99764721  0.74494825     0.20400
C1356       C  0.46226848  0.00912405  0.76429747    -0.03200
C1357       C  0.46284976  0.02734713  0.75438162    -0.06300
C1358       C  0.47591525  0.03390815  0.72554451     0.20700
C1359       C  0.45061539  0.03901499  0.77385691     0.18800
C1360       C  0.43787015  0.03223506  0.80300286    -0.17700
C1361       C  0.43737229  0.01416615  0.81306520    -0.20000
C1362       C  0.44956232  0.00245067  0.79406690     0.20300
C1363       C  0.44958687  0.98431152  0.80494715    -0.33000
C1364       C  0.46231370  0.97289684  0.78658862     0.01000
C1365       C  0.47451301  0.97975848  0.75597277    -0.24300
C1366       C  0.47696803  0.05202250  0.71725777    -0.28900
C1367       C  0.46501941  0.06384122  0.73674572     0.06700
C1368       C  0.45162172  0.05723035  0.76446247    -0.27600
H1369       H  0.49803209  0.02711018  0.68370243     0.11400
H1370       H  0.49689947  0.99561417  0.70039955     0.12500
H1371       H  0.42838337  0.04094252  0.81842061     0.11600
H1372       H  0.42751924  0.00937933  0.83602370     0.10800
H1373       H  0.44016364  0.97924169  0.82865867     0.16200
H1374       H  0.48427227  0.97115662  0.74114217     0.12100
H1375       H  0.48724200  0.05700356  0.69568284     0.15000
H1376       H  0.44245994  0.06628830  0.77988571     0.14800
C1377       C  0.56786431  0.81412791  0.37913826    -0.18100
C1378       C  0.57726680  0.79999637  0.39698073    -0.20300
C1379       C  0.59184319  0.80300657  0.42440115     0.20400
C1380       C  0.59674222  0.82046157  0.43482618    -0.03200
C1381       C  0.58701899  0.83476529  0.41740430    -0.06300
C1382       C  0.57271399  0.83154477  0.38881294     0.20700
C1383       C  0.59186855  0.85224516  0.42766848     0.18800
C1384       C  0.60626417  0.85522696  0.45584484    -0.17700
C1385       C  0.61608944  0.84106550  0.47247653    -0.20000
C1386       C  0.61159080  0.82362323  0.46170554     0.20300
C1387       C  0.62183496  0.80930774  0.47646677    -0.33000
C1388       C  0.61709757  0.79185448  0.46572025     0.01000
C1389       C  0.60184185  0.78885980  0.44055690    -0.24300
C1390       C  0.56375200  0.84574944  0.36951672    -0.28900
C1391       C  0.56871016  0.86326805  0.37852777     0.06700
C1392       C  0.58256669  0.86638664  0.40858474    -0.27600
H1393       H  0.55687278  0.81142205  0.35735543     0.11400
H1394       H  0.57332993  0.78668604  0.38863831     0.12500
H1395       H  0.61015803  0.86853827  0.46429995     0.11600
H1396       H  0.62734207  0.84377408  0.49338522     0.10800
H1397       H  0.63349474  0.81171887  0.49620495     0.16200
H1398       H  0.59816573  0.77548644  0.43196478     0.12100
H1399       H  0.55303541  0.84311546  0.34680069     0.15000
H1400       H  0.58655446  0.87978698  0.41584176     0.14800
C1401       C  0.59290178  0.88412924  0.05949127    -0.18100
C1402       C  0.58352234  0.89396110  0.09064359    -0.20300
C1403       C  0.58917146  0.89459300  0.13472392     0.20400
C1404       C  0.60512228  0.88640376  0.14691564    -0.03200
C1405       C  0.61456434  0.87644512  0.11550645    -0.06300
C1406       C  0.60801938  0.87479413  0.07206889     0.20700
C1407       C  0.62974042  0.86700817  0.12848484     0.18800
C1408       C  0.63592848  0.86855335  0.17196088    -0.17700
C1409       C  0.62656037  0.87843410  0.20312754    -0.20000
C1410       C  0.61084933  0.88691385  0.19128326     0.20300
C1411       C  0.59999444  0.89452231  0.22361738    -0.33000
C1412       C  0.58330466  0.90095603  0.21210294     0.01000
C1413       C  0.57838898  0.90188276  0.16746299    -0.24300
C1414       C  0.61591376  0.86280806  0.04306515    -0.28900
C1415       C  0.63021003  0.85250833  0.05694472     0.06700
C1416       C  0.63764402  0.85521303  0.09874079    -0.27600
H1417       H  0.58785953  0.88314425  0.02609327     0.11400
H1418       H  0.57140260  0.90034674  0.08075552     0.12500
H1419       H  0.64760187  0.86148906  0.18237347     0.11600
H1420       H  0.63117180  0.87877006  0.23696689     0.10800
H1421       H  0.60368341  0.89370813  0.25815181     0.16200
H1422       H  0.56550165  0.90693815  0.15873651     0.12100
H1423       H  0.61029298  0.86066091  0.01055652     0.15000
H1424       H  0.64863299  0.84712742  0.10925631     0.14800
C1425       C  0.47274154  0.89339118  0.04715864    -0.18100
C1426       C  0.47865661  0.89131615  0.09056925    -0.20300
C1427       C  0.48885445  0.90448894  0.11068995     0.20400
C1428       C  0.49304276  0.91995203  0.08702792    -0.03200
C1429       C  0.48729451  0.92193386  0.04309930    -0.06300
C1430       C  0.47704616  0.90861002  0.02316829     0.20700
C1431       C  0.49209568  0.93709658  0.01887922     0.18800
C1432       C  0.50221120  0.95028456  0.03904198    -0.17700
C1433       C  0.50763897  0.94846682  0.08287029    -0.20000
C1434       C  0.50320938  0.93333466  0.10701021     0.20300
C1435       C  0.50902474  0.93122128  0.15054488    -0.33000
C1436       C  0.50527893  0.91568164  0.17378477     0.01000
C1437       C  0.49515842  0.90238208  0.15383163    -0.24300
C1438       C  0.47166957  0.91058128  0.97924633    -0.28900
C1439       C  0.47689931  0.92540917  0.95476900     0.06700
C1440       C  0.48703494  0.93862766  0.97462475    -0.27600
H1441       H  0.46496722  0.88300912  0.03218945     0.11400
H1442       H  0.47532724  0.87938699  0.10832635     0.12500
H1443       H  0.50598641  0.96197998  0.02084811     0.11600
H1444       H  0.51548791  0.95880880  0.09773134     0.10800
H1445       H  0.51694896  0.94140830  0.16590079     0.16200
H1446       H  0.49216319  0.89044543  0.17198687     0.12100
H1447       H  0.46414790  0.90019872  0.96339805     0.15000
H1448       H  0.49113001  0.94996282  0.95540761     0.14800
C1449       C  0.53720056  0.93922773  0.56425487    -0.18100
C1450       C  0.53175911  0.93759390  0.60828325    -0.20300
C1451       C  0.51693015  0.92740222  0.61907266     0.20400
C1452       C  0.50730996  0.91904207  0.58516653    -0.03200
C1453       C  0.51272199  0.92074959  0.54096374    -0.06300
C1454       C  0.52785244  0.93076438  0.53035187     0.20700
C1455       C  0.50307145  0.91224635  0.50743117     0.18800
C1456       C  0.48814283  0.90222144  0.51793844    -0.17700
C1457       C  0.48280940  0.90050484  0.56170987    -0.20000
C1458       C  0.49236991  0.90875487  0.59541059     0.20300
C1459       C  0.48737668  0.90659884  0.63926746    -0.33000
C1460       C  0.49712954  0.91444176  0.67336965     0.01000
C1461       C  0.51170959  0.92512703  0.66313884    -0.24300
C1462       C  0.53329713  0.93204636  0.48606178    -0.28900
C1463       C  0.52350814  0.92369507  0.45274539     0.06700
C1464       C  0.50850021  0.91381570  0.46379898    -0.27600
H1465       H  0.54877414  0.94703964  0.55674676     0.11400
H1466       H  0.53924898  0.94414087  0.63392612     0.12500
H1467       H  0.48065283  0.89564879  0.49232273     0.11600
H1468       H  0.47129396  0.89259851  0.56924600     0.10800
H1469       H  0.47590879  0.89861064  0.64679871     0.16200
H1470       H  0.51919520  0.93131443  0.68937325     0.12100
H1471       H  0.54490010  0.93964835  0.47747411     0.15000
H1472       H  0.50109745  0.90706307  0.43824697     0.14800
C1473       C  0.45526228  0.21095942  0.16503058    -0.18100
C1474       C  0.47066016  0.20185688  0.17607024    -0.20300
C1475       C  0.47065760  0.18339877  0.17860088     0.20400
C1476       C  0.45496670  0.17403023  0.17000792    -0.03200
C1477       C  0.43936434  0.18323324  0.15943562    -0.06300
C1478       C  0.43955766  0.20177342  0.15662794     0.20700
C1479       C  0.42365194  0.17386064  0.15104898     0.18800
C1480       C  0.42369257  0.15540042  0.15328992    -0.17700
C1481       C  0.43916371  0.14628385  0.16347793    -0.20000
C1482       C  0.45485685  0.15546344  0.17186301     0.20300
C1483       C  0.47037368  0.14640318  0.18252959    -0.33000
C1484       C  0.48597545  0.15564380  0.19226075     0.01000
C1485       C  0.48601666  0.17416447  0.18990650    -0.24300
C1486       C  0.42418899  0.21075955  0.14421780    -0.28900
C1487       C  0.40855927  0.20148482  0.13454123     0.06700
C1488       C  0.40832455  0.18304826  0.13917829    -0.27600
H1489       H  0.45565574  0.22520017  0.16290318     0.11400
H1490       H  0.48259256  0.20925714  0.18248437     0.12500
H1491       H  0.41177537  0.14799067  0.14676163     0.11600
H1492       H  0.43884796  0.13202530  0.16483653     0.10800
H1493       H  0.47016062  0.13214462  0.18443344     0.16200
H1494       H  0.49798778  0.18140886  0.19706481     0.12100
H1495       H  0.42456864  0.22496222  0.14064371     0.15000
H1496       H  0.39647254  0.17574035  0.13121066     0.14800
C1497       C  0.55000541  0.10557503  0.97325166    -0.18100
C1498       C  0.54487130  0.10817524  0.92937091    -0.20300
C1499       C  0.52713178  0.11122598  0.91897412     0.20400
C1500       C  0.51438548  0.11136208  0.95301585    -0.03200
C1501       C  0.51950393  0.10835469  0.99701733    -0.06300
C1502       C  0.53744458  0.10574171  0.00729748     0.20700
C1503       C  0.50671270  0.10845291  0.03084492     0.18800
C1504       C  0.48897452  0.11150858  0.02057766    -0.17700
C1505       C  0.48393871  0.11479125  0.97706537    -0.20000
C1506       C  0.49655183  0.11485086  0.94322676     0.20300
C1507       C  0.49166586  0.11855104  0.89980642    -0.33000
C1508       C  0.50424790  0.11832318  0.86599785     0.01000
C1509       C  0.52189522  0.11442209  0.87531137    -0.24300
C1510       C  0.54253890  0.10396670  0.05156530    -0.28900
C1511       C  0.52985828  0.10451262  0.08538694     0.06700
C1512       C  0.51194252  0.10620264  0.07462481    -0.27600
H1513       H  0.56382145  0.10357881  0.98060328     0.11400
H1514       H  0.55480649  0.10807367  0.90365426     0.12500
H1515       H  0.47904391  0.11168886  0.04632217     0.11600
H1516       H  0.47020915  0.11739324  0.96990908     0.10800
H1517       H  0.47804121  0.12148353  0.89208463     0.16200
H1518       H  0.53152798  0.11437359  0.84883774     0.12100
H1519       H  0.55637117  0.10270142  0.05979622     0.15000
H1520       H  0.50210965  0.10690728  0.10058461     0.14800
C1521       C  0.52255032  0.13474922  0.52021276    -0.18100
C1522       C  0.52767274  0.13700780  0.47636951    -0.20300
C1523       C  0.51685487  0.13101308  0.44205509     0.20400
C1524       C  0.50057127  0.12288565  0.45181625    -0.03200
C1525       C  0.49529206  0.12079740  0.49609109    -0.06300
C1526       C  0.50647069  0.12658231  0.53024329     0.20700
C1527       C  0.47893440  0.11283501  0.50619113     0.18800
C1528       C  0.46803751  0.10705921  0.47168087    -0.17700
C1529       C  0.47340932  0.10889709  0.42764157    -0.20000
C1530       C  0.48968993  0.11670086  0.41741409     0.20300
C1531       C  0.49538425  0.11831716  0.37349550    -0.33000
C1532       C  0.51165800  0.12632854  0.36375210     0.01000
C1533       C  0.52217735  0.13282131  0.39816694    -0.24300
C1534       C  0.50145990  0.12408260  0.57399974    -0.28900
C1535       C  0.48528754  0.11609565  0.58454463     0.06700
C1536       C  0.47389907  0.11071810  0.55058971    -0.27600
H1537       H  0.53118107  0.13932485  0.54627519     0.11400
H1538       H  0.54019371  0.14328998  0.46930303     0.12500
H1539       H  0.45543924  0.10096009  0.47875596     0.11600
H1540       H  0.46485912  0.10416410  0.40158462     0.10800
H1541       H  0.48715016  0.11342952  0.34694417     0.16200
H1542       H  0.53477308  0.13892219  0.39085077     0.12100
H1543       H  0.51012767  0.12865293  0.60005887     0.15000
H1544       H  0.46136567  0.10467635  0.55870472     0.14800
C1545       C  0.57524698  0.02304611  0.23073512    -0.18100
C1546       C  0.57473398  0.00489251  0.23968821    -0.20300
C1547       C  0.56179982  0.99783170  0.26787327     0.20400
C1548       C  0.54956714  0.00932732  0.28801559    -0.03200
C1549       C  0.55020074  0.02761559  0.27935823    -0.06300
C1550       C  0.56290524  0.03453316  0.24998224     0.20700
C1551       C  0.53775242  0.03889449  0.29921445     0.18800
C1552       C  0.52505892  0.03200142  0.32810658    -0.17700
C1553       C  0.52432705  0.01395025  0.33631486    -0.20000
C1554       C  0.53635873  0.00252227  0.31603688     0.20300
C1555       C  0.53509289  0.98436641  0.32265624    -0.33000
C1556       C  0.54690289  0.97270286  0.30217580     0.01000
C1557       C  0.56054452  0.97951358  0.27553218    -0.24300
C1558       C  0.56257745  0.05265170  0.23932086    -0.28900
C1559       C  0.54961465  0.06379703  0.25767047     0.06700
C1560       C  0.53770159  0.05680155  0.28871659    -0.27600
H1561       H  0.58515133  0.02806258  0.20821553     0.11400
H1562       H  0.58427122  0.99633541  0.22394101     0.12500
H1563       H  0.51543894  0.04053642  0.34363541     0.11600
H1564       H  0.51417318  0.00889120  0.35808266     0.10800
H1565       H  0.52471582  0.97923673  0.34371659     0.16200
H1566       H  0.56968441  0.97057441  0.25960075     0.12100
H1567       H  0.57186525  0.05787286  0.21546222     0.15000
H1568       H  0.52781923  0.06521538  0.30367117     0.14800
C1569       C  0.89052323  0.69539196  0.08780839    -0.18100
C1570       C  0.90033140  0.68106763  0.10326711    -0.20300
C1571       C  0.91774169  0.68341794  0.11766750     0.20400
C1572       C  0.92545799  0.70032178  0.11552100    -0.03200
C1573       C  0.91556010  0.71477709  0.09996087    -0.06300
C1574       C  0.89795339  0.71232291  0.08649065     0.20700
C1575       C  0.92318175  0.73173559  0.09876686     0.18800
C1576       C  0.94066934  0.73405270  0.11247888    -0.17700
C1577       C  0.95045924  0.71974876  0.12792887    -0.20000
C1578       C  0.94291722  0.70288756  0.12996691     0.20300
C1579       C  0.95236227  0.68870132  0.14759545    -0.33000
C1580       C  0.94456361  0.67193844  0.15165571     0.01000
C1581       C  0.92736424  0.66931863  0.13553081    -0.24300
C1582       C  0.88800493  0.72687237  0.07263147    -0.28900
C1583       C  0.89543540  0.74387580  0.07190195     0.06700
C1584       C  0.91311433  0.74613026  0.08458356    -0.27600
H1585       H  0.87704248  0.69326584  0.07740995     0.11400
H1586       H  0.89420000  0.66818403  0.10457808     0.12500
H1587       H  0.94672263  0.74698060  0.11173605     0.11600
H1588       H  0.96385893  0.72192450  0.13889858     0.10800
H1589       H  0.96561227  0.69091358  0.15967416     0.16200
H1590       H  0.92118068  0.65649906  0.13853342     0.12100
H1591       H  0.87442533  0.72496050  0.06272423     0.15000
H1592       H  0.91895978  0.75916371  0.08433791     0.14800
C1593       C  0.91084621  0.65046809  0.46785891    -0.18100
C1594       C  0.92025813  0.64088917  0.43627706    -0.20300
C1595       C  0.91800339  0.64438966  0.39114926     0.20400
C1596       C  0.90567031  0.65722923  0.37755691    -0.03200
C1597       C  0.89616596  0.66685490  0.40936112    -0.06300
C1598       C  0.89903304  0.66364885  0.45472387     0.20700
C1599       C  0.88466148  0.68045308  0.39583139     0.18800
C1600       C  0.88235754  0.68392063  0.35073073    -0.17700
C1601       C  0.89181273  0.67439277  0.31917722    -0.20000
C1602       C  0.90367687  0.66125774  0.33232220     0.20300
C1603       C  0.91444724  0.65292129  0.30127161    -0.33000
C1604       C  0.92724393  0.64083938  0.31496008     0.01000
C1605       C  0.92870404  0.63618125  0.35954279    -0.24300
C1606       C  0.89091259  0.67445550  0.48608052    -0.28900
C1607       C  0.88013631  0.68838580  0.47250879     0.06700
C1608       C  0.87659573  0.69109335  0.42769686    -0.27600
H1609       H  0.91319585  0.64793205  0.50258133     0.11400
H1610       H  0.92970616  0.63113592  0.44718574     0.12500
H1611       H  0.87365415  0.69436785  0.33991768     0.11600
H1612       H  0.89024050  0.67765136  0.28456680     0.10800
H1613       H  0.91380826  0.65676332  0.26679038     0.16200
H1614       H  0.93901401  0.62720407  0.36983813     0.12100
H1615       H  0.89389732  0.67283508  0.52088510     0.15000
H1616       H  0.86862942  0.70224826  0.41766661     0.14800
C1617       C  0.98673493  0.51739962  0.35502028    -0.18100
C1618       C  0.98751680  0.53520088  0.34369151    -0.20300
C1619       C  0.97645790  0.54196794  0.31076042     0.20400
C1620       C  0.96410967  0.53084043  0.28991625    -0.03200
C1621       C  0.96335767  0.51281818  0.30126707    -0.06300
C1622       C  0.97492533  0.50608121  0.33350071     0.20700
C1623       C  0.95147298  0.50145471  0.27941749     0.18800
C1624       C  0.94011431  0.50838477  0.24724587    -0.17700
C1625       C  0.94080543  0.52629427  0.23612793    -0.20000
C1626       C  0.95290796  0.53759332  0.25683745     0.20300
C1627       C  0.95442038  0.55536075  0.24416624    -0.33000
C1628       C  0.96723247  0.56631369  0.26361423     0.01000
C1629       C  0.97793150  0.55955204  0.29749147    -0.24300
C1630       C  0.97497902  0.48803140  0.34253728    -0.28900
C1631       C  0.96373916  0.47646763  0.31970145     0.06700
C1632       C  0.95163179  0.48330464  0.28903167    -0.27600
H1633       H  0.99564442  0.51240137  0.37997874     0.11400
H1634       H  0.99700155  0.54361374  0.36012934     0.12500
H1635       H  0.93089502  0.49989739  0.23015183     0.11600
H1636       H  0.93208135  0.53124170  0.21070517     0.10800
H1637       H  0.94613631  0.56044882  0.21798046     0.16200
H1638       H  0.98771160  0.56791510  0.31303803     0.12100
H1639       H  0.98422248  0.48286106  0.36654252     0.15000
H1640       H  0.94300742  0.47443554  0.27117138     0.14800
C1641       C  0.05360827  0.32538752  0.37809142    -0.18100
C1642       C  0.03884277  0.33502379  0.36486366    -0.20300
C1643       C  0.04035931  0.35300001  0.35483547     0.20400
C1644       C  0.05698750  0.36127702  0.35754798    -0.03200
C1645       C  0.07189685  0.35154831  0.37087438    -0.06300
C1646       C  0.07013210  0.33357245  0.38158015     0.20700
C1647       C  0.08845429  0.35991247  0.37452731     0.18800
C1648       C  0.09001791  0.37782634  0.36387180    -0.17700
C1649       C  0.07525654  0.38745467  0.35055163    -0.20000
C1650       C  0.05867657  0.37934437  0.34771390     0.20300
C1651       C  0.04373703  0.38903877  0.33569120    -0.33000
C1652       C  0.02705669  0.38095248  0.33321926     0.01000
C1653       C  0.02551915  0.36287037  0.34261718    -0.24300
C1654       C  0.08476919  0.32423731  0.39709054    -0.28900
C1655       C  0.10116818  0.33265350  0.40277991     0.06700
C1656       C  0.10300368  0.35039712  0.39025408    -0.27600
H1657       H  0.05205062  0.31157621  0.38621384     0.11400
H1658       H  0.02619794  0.32845108  0.36289466     0.12500
H1659       H  0.10261361  0.38445448  0.36642887     0.11600
H1660       H  0.07677577  0.40131900  0.34294529     0.10800
H1661       H  0.04512776  0.40294652  0.32836999     0.16200
H1662       H  0.01274864  0.35651416  0.34097103     0.12100
H1663       H  0.08316924  0.31054785  0.40644108     0.15000
H1664       H  0.11551703  0.35704027  0.39467473     0.14800
C1665       C  0.95188528  0.71157403  0.69836655    -0.18100
C1666       C  0.96664250  0.70221635  0.71313918    -0.20300
C1667       C  0.96801480  0.68400925  0.70570013     0.20400
C1668       C  0.95410689  0.67508557  0.68428808    -0.03200
C1669       C  0.93912423  0.68447833  0.66989073    -0.06300
C1670       C  0.93816094  0.70286912  0.67621276     0.20700
C1671       C  0.92534671  0.67552443  0.64804581     0.18800
C1672       C  0.92655723  0.65729283  0.64121020    -0.17700
C1673       C  0.94143016  0.64802943  0.65517923    -0.20000
C1674       C  0.95531586  0.65682759  0.67634700     0.20300
C1675       C  0.97049566  0.64769358  0.68899186    -0.33000
C1676       C  0.98461226  0.65645806  0.70968254     0.01000
C1677       C  0.98314640  0.67462417  0.71851450    -0.24300
C1678       C  0.92377057  0.71226565  0.65903512    -0.28900
C1679       C  0.91018614  0.70343162  0.63642649     0.06700
C1680       C  0.91087308  0.68501937  0.63207206    -0.27600
H1681       H  0.95131638  0.72566859  0.70375421     0.11400
H1682       H  0.97713161  0.70928538  0.72970978     0.12500
H1683       H  0.91611895  0.65023820  0.62440152     0.11600
H1684       H  0.94216141  0.63398989  0.64895949     0.10800
H1685       H  0.97132482  0.63368120  0.68237455     0.16200
H1686       H  0.99387809  0.68151658  0.73459764     0.12100
H1687       H  0.92330763  0.72647567  0.66236885     0.15000
H1688       H  0.90059684  0.67818345  0.61403843     0.14800
C1689       C  0.98838418  0.61768237  0.51919440    -0.18100
C1690       C  0.98381698  0.62214142  0.47597225    -0.20300
C1691       C  0.99677645  0.62308984  0.44303386     0.20400
C1692       C  0.01450944  0.61942949  0.45354923    -0.03200
C1693       C  0.01916195  0.61528144  0.49735557    -0.06300
C1694       C  0.00601254  0.61437724  0.53022327     0.20700
C1695       C  0.03697373  0.61231222  0.50837238     0.18800
C1696       C  0.04988422  0.61300734  0.47519477    -0.17700
C1697       C  0.04520318  0.61663106  0.43144037    -0.20000
C1698       C  0.02757274  0.61993395  0.42033786     0.20300
C1699       C  0.02270946  0.62358320  0.37661512    -0.33000
C1700       C  0.00508305  0.62733436  0.36627303     0.01000
C1701       C  0.99225874  0.62737831  0.39961884    -0.24300
C1702       C  0.01076301  0.61077909  0.57387959    -0.28900
C1703       C  0.02856623  0.60869374  0.58561080     0.06700
C1704       C  0.04158437  0.60918272  0.55253758    -0.27600
H1705       H  0.97815710  0.61707315  0.54415556     0.11400
H1706       H  0.97014276  0.62480102  0.46827125     0.12500
H1707       H  0.06361477  0.61075540  0.48309270     0.11600
H1708       H  0.05538449  0.61699598  0.40635990     0.10800
H1709       H  0.03256469  0.62354406  0.35066548     0.16200
H1710       H  0.97861581  0.63001267  0.39132742     0.12100
H1711       H  0.00063222  0.61064311  0.59915518     0.15000
H1712       H  0.05533003  0.60760840  0.56133626     0.14800
C1713       C  0.96638247  0.60776765  0.97715088    -0.18100
C1714       C  0.97156757  0.61053757  0.93334055    -0.20300
C1715       C  0.98946161  0.61241607  0.92264756     0.20400
C1716       C  0.00229164  0.61100097  0.95615221    -0.03200
C1717       C  0.99708975  0.60785194  0.00005941    -0.06300
C1718       C  0.97902663  0.60663378  0.01079199     0.20700
C1719       C  0.00995412  0.60657190  0.03343903     0.18800
C1720       C  0.02785879  0.60812058  0.02272158    -0.17700
C1721       C  0.03300147  0.61150660  0.97931299    -0.20000
C1722       C  0.02032376  0.61318984  0.94601040     0.20300
C1723       C  0.02534901  0.61725995  0.90284182    -0.33000
C1724       C  0.01266107  0.61867541  0.86952692     0.01000
C1725       C  0.99477879  0.61597571  0.87923366    -0.24300
C1726       C  0.97395360  0.60513481  0.05517374    -0.28900
C1727       C  0.98675448  0.60470500  0.08867159     0.06700
C1728       C  0.00470666  0.60466755  0.07732817    -0.27600
H1729       H  0.95247071  0.60679159  0.98481844     0.11400
H1730       H  0.96157367  0.61156183  0.90796992     0.12500
H1731       H  0.03785419  0.60716238  0.04810780     0.11600
H1732       H  0.04689004  0.61302773  0.97187522     0.10800
H1733       H  0.03916928  0.61913450  0.89493441     0.16200
H1734       H  0.98503801  0.61711791  0.85323997     0.12100
H1735       H  0.96008490  0.60507346  0.06375300     0.15000
H1736       H  0.01467639  0.60443333  0.10292795     0.14800
C1737       C  0.98390388  0.43715422  0.07614091    -0.18100
C1738       C  0.98903313  0.43775670  0.03189949    -0.20300
C1739       C  0.00675056  0.43531725  0.02020242     0.20400
C1740       C  0.01956453  0.43292770  0.05326804    -0.03200
C1741       C  0.01440746  0.43238863  0.09792941    -0.06300
C1742       C  0.99642930  0.43415542  0.10921915     0.20700
C1743       C  0.02709786  0.42928313  0.13107023     0.18800
C1744       C  0.04488465  0.42742344  0.11935715    -0.17700
C1745       C  0.04999755  0.42796589  0.07495811    -0.20000
C1746       C  0.03740463  0.43036906  0.04162411     0.20300
C1747       C  0.04219441  0.42956856  0.99685714    -0.33000
C1748       C  0.02931290  0.43113432  0.96379308     0.01000
C1749       C  0.01172244  0.43454387  0.97587418    -0.24300
C1750       C  0.99120303  0.43206776  0.15314602    -0.28900
C1751       C  0.00369259  0.42824496  0.18563188     0.06700
C1752       C  0.02162737  0.42729313  0.17501082    -0.27600
H1753       H  0.97008422  0.43860110  0.08439446     0.11400
H1754       H  0.97908270  0.43967770  0.00675327     0.12500
H1755       H  0.05477727  0.42511567  0.14443854     0.11600
H1756       H  0.06375092  0.42608093  0.06662679     0.10800
H1757       H  0.05577898  0.42702535  0.98785946     0.16200
H1758       H  0.00168283  0.43602649  0.95073034     0.12100
H1759       H  0.97734865  0.43263059  0.16188459     0.15000
H1760       H  0.03112624  0.42415669  0.20052921     0.14800
C1761       C  0.01021653  0.39231473  0.53386844    -0.18100
C1762       C  0.01550295  0.39068118  0.57777944    -0.20300
C1763       C  0.01047437  0.40335882  0.60903685     0.20400
C1764       C  0.00010134  0.41786797  0.59609441    -0.03200
C1765       C  0.99458522  0.41940543  0.55191776    -0.06300
C1766       C  0.99974604  0.40658029  0.52076485     0.20700
C1767       C  0.98399853  0.43379475  0.53887093     0.18800
C1768       C  0.97930769  0.44663509  0.57007169    -0.17700
C1769       C  0.98493925  0.44519369  0.61389632    -0.20000
C1770       C  0.99524547  0.43082681  0.62725867     0.20300
C1771       C  0.00070671  0.42911701  0.67124256    -0.33000
C1772       C  0.01071429  0.41448084  0.68440309     0.01000
C1773       C  0.01562535  0.40173150  0.65305564    -0.24300
C1774       C  0.99453211  0.40836421  0.47687216    -0.28900
C1775       C  0.98402333  0.42261032  0.46373978     0.06700
C1776       C  0.97854842  0.43518437  0.49473175    -0.27600
H1777       H  0.01429128  0.38241234  0.51016637     0.11400
H1778       H  0.02353351  0.37952444  0.58728788     0.12500
H1779       H  0.97131612  0.45781650  0.56055104     0.11600
H1780       H  0.98115276  0.45527365  0.63741293     0.10800
H1781       H  0.99695628  0.43901704  0.69530553     0.16200
H1782       H  0.02360832  0.39056204  0.66282679     0.12100
H1783       H  0.99874923  0.39871071  0.45261054     0.15000
H1784       H  0.97066567  0.44630459  0.48414012     0.14800
C1785       C  0.02425675  0.53107953  0.82417956    -0.18100
C1786       C  0.02462041  0.51326289  0.83493288    -0.20300
C1787       C  0.03805047  0.50242614  0.81856996     0.20400
C1788       C  0.05157415  0.50959666  0.79217617    -0.03200
C1789       C  0.05119008  0.52766545  0.78123203    -0.06300
C1790       C  0.03731810  0.53830536  0.79692050     0.20700
C1791       C  0.06434500  0.53496931  0.75376316     0.18800
C1792       C  0.07807401  0.52409728  0.73863178    -0.17700
C1793       C  0.07847028  0.50611330  0.74955822    -0.20000
C1794       C  0.06512978  0.49863726  0.77580254     0.20300
C1795       C  0.06469605  0.48038210  0.78488195    -0.33000
C1796       C  0.05066013  0.47317855  0.80946588     0.01000
C1797       C  0.03777369  0.48442118  0.82712204    -0.24300
C1798       C  0.03637936  0.55591438  0.78425009    -0.28900
C1799       C  0.04893744  0.56329273  0.75548821     0.06700
C1800       C  0.06319437  0.55284049  0.74110929    -0.27600
H1801       H  0.01356211  0.53915239  0.83654424     0.11400
H1802       H  0.01419923  0.50788234  0.85537555     0.12500
H1803       H  0.08836032  0.52943565  0.71771334     0.11600
H1804       H  0.08903875  0.49799217  0.73680461     0.10800
H1805       H  0.07473167  0.47177586  0.77140297     0.16200
H1806       H  0.02714447  0.47903140  0.84694753     0.12100
H1807       H  0.02550009  0.56383213  0.79629473     0.15000
H1808       H  0.07299790  0.55840563  0.71911807     0.14800
C1809       C  0.07118572  0.30258852  0.93621152    -0.18100
C1810       C  0.06240045  0.31744001  0.92004517    -0.20300
C1811       C  0.07134797  0.33350443  0.91506080     0.20400
C1812       C  0.08923337  0.33472135  0.92718906    -0.03200
C1813       C  0.09816946  0.31965751  0.94277082    -0.06300
C1814       C  0.08912656  0.30348581  0.94711596     0.20700
C1815       C  0.11624651  0.32069636  0.95298137     0.18800
C1816       C  0.12512133  0.33683113  0.94867378    -0.17700
C1817       C  0.11622062  0.35180548  0.93380365    -0.20000
C1818       C  0.09832630  0.35086493  0.92263319     0.20300
C1819       C  0.08953014  0.36562158  0.90563857    -0.33000
C1820       C  0.07195127  0.36426721  0.89174985     0.01000
C1821       C  0.06287729  0.34823558  0.89702571    -0.24300
C1822       C  0.09828623  0.28841460  0.96114323    -0.28900
C1823       C  0.11646811  0.28921997  0.97000747     0.06700
C1824       C  0.12524618  0.30551697  0.96640508    -0.27600
H1825       H  0.06402255  0.29030580  0.93938897     0.11400
H1826       H  0.04864392  0.31631368  0.91101094     0.12500
H1827       H  0.13901434  0.33783436  0.95642292     0.11600
H1828       H  0.12341015  0.36405901  0.93034539     0.10800
H1829       H  0.09661972  0.37788718  0.90099952     0.16200
H1830       H  0.04929583  0.34716542  0.88631635     0.12100
H1831       H  0.09136947  0.27596549  0.96384353     0.15000
H1832       H  0.13921059  0.30638504  0.97348907     0.14800
C1833       C  0.08246289  0.38967737  0.60051236    -0.18100
C1834       C  0.09149000  0.37986349  0.56877590    -0.20300
C1835       C  0.10768422  0.37202818  0.57910858     0.20400
C1836       C  0.11545015  0.37497687  0.62077077    -0.03200
C1837       C  0.10633499  0.38494198  0.65283983    -0.06300
C1838       C  0.08951096  0.39179252  0.64296067     0.20700
C1839       C  0.11340558  0.38689353  0.69569777     0.18800
C1840       C  0.13005485  0.37978575  0.70512814    -0.17700
C1841       C  0.13910538  0.36987739  0.67327463    -0.20000
C1842       C  0.13168888  0.36692424  0.63143980     0.20300
C1843       C  0.13952266  0.35518085  0.60115003    -0.33000
C1844       C  0.13105657  0.35135953  0.56102213     0.01000
C1845       C  0.11559240  0.36032708  0.54955673    -0.24300
C1846       C  0.07940391  0.39930923  0.67663617    -0.28900
C1847       C  0.08570785  0.39981965  0.72019132     0.06700
C1848       C  0.10308943  0.39459804  0.72917270    -0.27600
H1849       H  0.06959454  0.39495565  0.59244423     0.11400
H1850       H  0.08546453  0.37777986  0.53677847     0.12500
H1851       H  0.13573298  0.38124989  0.73771805     0.11600
H1852       H  0.15160671  0.36393990  0.68199173     0.10800
H1853       H  0.15140130  0.34810338  0.61004201     0.16200
H1854       H  0.10913362  0.35731190  0.51849651     0.12100
H1855       H  0.06599641  0.40343573  0.66975954     0.15000
H1856       H  0.10788969  0.39488926  0.76286725     0.14800
C1857       C  0.08693361  0.89250132  0.44696397    -0.18100
C1858       C  0.09717877  0.88381651  0.47844010    -0.20300
C1859       C  0.11203859  0.87414744  0.46542274     0.20400
C1860       C  0.11739282  0.87418550  0.42075458    -0.03200
C1861       C  0.10721037  0.88319635  0.38907838    -0.06300
C1862       C  0.09155970  0.89182130  0.40210885     0.20700
C1863       C  0.11195507  0.88242550  0.34398940     0.18800
C1864       C  0.12722224  0.87331318  0.33129786    -0.17700
C1865       C  0.13715963  0.86413920  0.36263364    -0.20000
C1866       C  0.13208633  0.86408650  0.40722643     0.20300
C1867       C  0.14052146  0.85306105  0.43785948    -0.33000
C1868       C  0.13431677  0.85211693  0.48143582     0.01000
C1869       C  0.12071764  0.86326065  0.49555609    -0.24300
C1870       C  0.08019046  0.89850604  0.36980391    -0.28900
C1871       C  0.08447875  0.89696007  0.32488542     0.06700
C1872       C  0.10066246  0.88964523  0.31216345    -0.27600
H1873       H  0.07505232  0.89918501  0.45748255     0.11400
H1874       H  0.09298903  0.88395746  0.51269224     0.12500
H1875       H  0.13104947  0.87263748  0.29683892     0.11600
H1876       H  0.14843391  0.85654828  0.35172365     0.10800
H1877       H  0.15086988  0.84420688  0.42706991     0.16200
H1878       H  0.11589769  0.86226982  0.52924515     0.12100
H1879       H  0.06755403  0.90396588  0.37931389     0.15000
H1880       H  0.10370205  0.88818533  0.27732567     0.14800
C1881       C  0.07590015  0.88675900  0.69963887    -0.18100
C1882       C  0.09063593  0.87763043  0.68391689    -0.20300
C1883       C  0.08927540  0.85985227  0.67166124     0.20400
C1884       C  0.07293428  0.85111732  0.67614111    -0.03200
C1885       C  0.05803355  0.86035033  0.69191763    -0.06300
C1886       C  0.05952182  0.87829232  0.70330008     0.20700
C1887       C  0.04160041  0.85172769  0.69544731     0.18800
C1888       C  0.04030313  0.83386315  0.68393486    -0.17700
C1889       C  0.05505603  0.82472048  0.66832223    -0.20000
C1890       C  0.07136645  0.83327715  0.66388352     0.20300
C1891       C  0.08597938  0.82443968  0.64617099    -0.33000
C1892       C  0.10219920  0.83318701  0.64001631     0.01000
C1893       C  0.10381219  0.85082572  0.65380935    -0.24300
C1894       C  0.04456705  0.88755898  0.71739717    -0.28900
C1895       C  0.02802418  0.87920689  0.72024851     0.06700
C1896       C  0.02671547  0.86118407  0.70968250    -0.27600
H1897       H  0.07726683  0.90053110  0.70840196     0.11400
H1898       H  0.10305746  0.88455255  0.68079832     0.12500
H1899       H  0.02782731  0.82700778  0.68651592     0.11600
H1900       H  0.05364330  0.81099806  0.65910945     0.10800
H1901       H  0.08452874  0.81083559  0.63588646     0.16200
H1902       H  0.11615850  0.85774920  0.64905248     0.12100
H1903       H  0.04581101  0.90139873  0.72565453     0.15000
H1904       H  0.01407211  0.85459515  0.71168250     0.14800
C1905       C  0.06170624  0.72062632  0.65006137    -0.18100
C1906       C  0.07105968  0.73564952  0.63733071    -0.20300
C1907       C  0.08845376  0.73422301  0.62214932     0.20400
C1908       C  0.09644244  0.71746303  0.61917829    -0.03200
C1909       C  0.08692413  0.70229297  0.63142933    -0.06300
C1910       C  0.06956101  0.70393425  0.64744871     0.20700
C1911       C  0.09492996  0.68555188  0.62867150     0.18800
C1912       C  0.11226336  0.68410292  0.61298338    -0.17700
C1913       C  0.12175865  0.69916222  0.60117247    -0.20000
C1914       C  0.11402757  0.71588276  0.60462147     0.20300
C1915       C  0.12359258  0.73106453  0.59401914    -0.33000
C1916       C  0.11566941  0.74773658  0.59671321     0.01000
C1917       C  0.09805975  0.74925268  0.61023303    -0.24300
C1918       C  0.06055610  0.68894372  0.66204212    -0.28900
C1919       C  0.06870955  0.67230292  0.66125591     0.06700
C1920       C  0.08571183  0.67064300  0.64322366    -0.27600
H1921       H  0.04838280  0.72207883  0.66236426     0.11400
H1922       H  0.06475648  0.74841208  0.63985869     0.12500
H1923       H  0.11858368  0.67134943  0.61058977     0.11600
H1924       H  0.13521060  0.69774574  0.58971681     0.10800
H1925       H  0.13712606  0.72991718  0.58287950     0.16200
H1926       H  0.09198199  0.76215276  0.61222410     0.12100
H1927       H  0.04742904  0.69037947  0.67568312     0.15000
H1928       H  0.09214289  0.65790481  0.64258299     0.14800
C1929       C  0.37710410  0.85141877  0.68982340    -0.18100
C1930       C  0.38681620  0.86104502  0.72066929    -0.20300
C1931       C  0.39718093  0.87535099  0.70704069     0.20400
C1932       C  0.39703782  0.88067241  0.66238952    -0.03200
C1933       C  0.38707095  0.87104814  0.63128005    -0.06300
C1934       C  0.37752098  0.85603438  0.64498476     0.20700
C1935       C  0.38773119  0.87562814  0.58609866     0.18800
C1936       C  0.39773389  0.89027051  0.57279380    -0.17700
C1937       C  0.40773706  0.89972972  0.60361753    -0.20000
C1938       C  0.40782671  0.89479483  0.64830032     0.20300
C1939       C  0.41934197  0.90287688  0.67859555    -0.33000
C1940       C  0.42013195  0.89686130  0.72238605     0.01000
C1941       C  0.40862760  0.88358585  0.73671324    -0.24300
C1942       C  0.36976718  0.84509035  0.61325661    -0.28900
C1943       C  0.37142683  0.84892274  0.56810424     0.06700
C1944       C  0.37959256  0.86465461  0.55472406    -0.27600
H1945       H  0.36979736  0.83995377  0.70080802     0.11400
H1946       H  0.38679528  0.85685797  0.75487963     0.12500
H1947       H  0.39838765  0.89396719  0.53829297     0.11600
H1948       H  0.41588184  0.91054885  0.59220732     0.10800
H1949       H  0.42851763  0.91290049  0.66747926     0.16200
H1950       H  0.40951523  0.87882921  0.77038599     0.12100
H1951       H  0.36367430  0.83280284  0.62337535     0.15000
H1952       H  0.38120178  0.86736248  0.51979944     0.14800
C1953       C  0.43436272  0.88167321  0.33844257    -0.18100
C1954       C  0.41957515  0.87204967  0.35185337    -0.20300
C1955       C  0.42151583  0.85518827  0.37014661     0.20400
C1956       C  0.43850404  0.84783212  0.37428642    -0.03200
C1957       C  0.45340658  0.85749867  0.36053330    -0.06300
C1958       C  0.45132734  0.87455651  0.34287140     0.20700
C1959       C  0.47039323  0.85019071  0.36508727     0.18800
C1960       C  0.47232756  0.83329811  0.38318249    -0.17700
C1961       C  0.45758076  0.82378741  0.39718502    -0.20000
C1962       C  0.44065748  0.83099364  0.39317465     0.20300
C1963       C  0.42593618  0.82192970  0.40926613    -0.33000
C1964       C  0.40906591  0.82948716  0.40696607     0.01000
C1965       C  0.40686225  0.84585587  0.38599267    -0.24300
C1966       C  0.46624719  0.88421974  0.33014481    -0.28900
C1967       C  0.48324209  0.87699509  0.33437161     0.06700
C1968       C  0.48516268  0.85993066  0.35176031    -0.27600
H1969       H  0.43253612  0.89474332  0.32485700     0.11400
H1970       H  0.40663879  0.87790627  0.34853622     0.12500
H1971       H  0.48527593  0.82750516  0.38691558     0.11600
H1972       H  0.45943145  0.81087193  0.41164894     0.10800
H1973       H  0.42769787  0.80924454  0.42508806     0.16200
H1974       H  0.39390425  0.85180067  0.38434041     0.12100
H1975       H  0.46459940  0.89732952  0.31661005     0.15000
H1976       H  0.49818620  0.85427561  0.35537880     0.14800
C1977       C  0.24947907  0.83546651  0.55457630    -0.18100
C1978       C  0.26743694  0.83535147  0.54380514    -0.20300
C1979       C  0.27454031  0.82174618  0.51789931     0.20400
C1980       C  0.26337385  0.80818692  0.50248404    -0.03200
C1981       C  0.24528814  0.80837072  0.51307848    -0.06300
C1982       C  0.23827948  0.82203320  0.53945791     0.20700
C1983       C  0.23428809  0.79471566  0.49778900     0.18800
C1984       C  0.24131043  0.78104953  0.47204709    -0.17700
C1985       C  0.25921295  0.78080447  0.46180763    -0.20000
C1986       C  0.27031220  0.79425479  0.47702325     0.20300
C1987       C  0.28830704  0.79378630  0.46789429    -0.33000
C1988       C  0.29959712  0.80703686  0.48365606     0.01000
C1989       C  0.29263797  0.82120407  0.50792563    -0.24300
C1990       C  0.22030017  0.82179142  0.55087322    -0.28900
C1991       C  0.20936339  0.80800130  0.53628045     0.06700
C1992       C  0.21648607  0.79471048  0.50914328    -0.27600
H1993       H  0.24436527  0.84603166  0.57496206     0.11400
H1994       H  0.27580285  0.84582011  0.55608976     0.28500
H1995       H  0.23298854  0.77045736  0.46021121     0.11600
H1996       H  0.26440219  0.77002437  0.44225784     0.10800
H1997       H  0.29361545  0.78290901  0.44882214     0.16200
H1998       H  0.30136035  0.83135714  0.52038080     0.12100
H1999       H  0.21496803  0.83200809  0.57203630     0.15000
H2000       H  0.20821987  0.78404244  0.49742068     0.14800
C2001       C  0.12448969  0.83960150  0.09713003    -0.18100
C2002       C  0.11430582  0.85400514  0.11072878    -0.20300
C2003       C  0.09665993  0.85168923  0.12339049     0.20400
C2004       C  0.08909077  0.83472036  0.12120245    -0.03200
C2005       C  0.09932717  0.82020286  0.10707526    -0.06300
C2006       C  0.11718925  0.82261330  0.09557892     0.20700
C2007       C  0.09177447  0.80323683  0.10534407     0.18800
C2008       C  0.07405545  0.80093073  0.11728754    -0.17700
C2009       C  0.06400123  0.81524604  0.13181780    -0.20000
C2010       C  0.07144475  0.83215006  0.13433207     0.20300
C2011       C  0.06175507  0.84637316  0.15130329    -0.33000
C2012       C  0.06940353  0.86323232  0.15538138     0.01000
C2013       C  0.08670085  0.86587816  0.13990895    -0.24300
C2014       C  0.12745370  0.80799163  0.08315006    -0.28900
C2015       C  0.12002256  0.79099177  0.08144768     0.06700
C2016       C  0.10209871  0.78882070  0.09228370    -0.27600
H2017       H  0.13814796  0.84173273  0.08821449     0.11400
H2018       H  0.12034657  0.86692569  0.11215434     0.12500
H2019       H  0.06804161  0.78799560  0.11604372     0.11600
H2020       H  0.05045265  0.81304476  0.14166770     0.10800
H2021       H  0.04841144  0.84415530  0.16284782     0.16200
H2022       H  0.09277479  0.87873917  0.14311613     0.12100
H2023       H  0.14119670  0.80986976  0.07462338     0.15000
H2024       H  0.09619773  0.77582411  0.09123819     0.14800
C2025       C  0.10648626  0.63695622  0.92766489    -0.18100
C2026       C  0.11611238  0.64721514  0.95765831    -0.20300
C2027       C  0.12492103  0.66249276  0.94350803     0.20400
C2028       C  0.12474760  0.66695138  0.89823199    -0.03200
C2029       C  0.11515068  0.65651860  0.86790042    -0.06300
C2030       C  0.10552505  0.64174237  0.88295103     0.20700
C2031       C  0.11416697  0.66161664  0.82313859     0.18800
C2032       C  0.12347206  0.67650485  0.80860487    -0.17700
C2033       C  0.13286496  0.68687393  0.83864586    -0.20000
C2034       C  0.13318906  0.68247469  0.88365374     0.20300
C2035       C  0.14084507  0.69390484  0.91461475    -0.33000
C2036       C  0.14027765  0.69005630  0.96002909     0.01000
C2037       C  0.13292530  0.67396388  0.97410639    -0.24300
C2038       C  0.09409602  0.63289950  0.85379256    -0.28900
C2039       C  0.09221265  0.63876963  0.81009817     0.06700
C2040       C  0.10282243  0.65258945  0.79447545    -0.27600
H2041       H  0.09926531  0.62562241  0.93978223     0.11400
H2042       H  0.11613030  0.64355100  0.99223060     0.12500
H2043       H  0.12289739  0.68054154  0.77431234     0.11600
H2044       H  0.13937144  0.69868646  0.82690064     0.10800
H2045       H  0.14641833  0.70630913  0.90362769     0.16200
H2046       H  0.13215638  0.67106572  0.00911491     0.12100
H2047       H  0.08564697  0.62244053  0.86593782     0.15000
H2048       H  0.10110038  0.65726081  0.76089204     0.14800
C2049       C  0.09233501  0.66100056  0.15635695    -0.18100
C2050       C  0.07765981  0.65140696  0.17043003    -0.20300
C2051       C  0.06097153  0.65930536  0.17161694     0.20400
C2052       C  0.05897980  0.67695816  0.15792503    -0.03200
C2053       C  0.07373738  0.68654250  0.14301411    -0.06300
C2054       C  0.09051192  0.67856287  0.14279908     0.20700
C2055       C  0.07170780  0.70406897  0.12827451     0.18800
C2056       C  0.05496991  0.71187802  0.12896110    -0.17700
C2057       C  0.04038578  0.70248653  0.14461909    -0.20000
C2058       C  0.04226706  0.68506105  0.15930411     0.20300
C2059       C  0.02776905  0.67561189  0.17555057    -0.33000
C2060       C  0.02970452  0.65804174  0.18929247     0.01000
C2061       C  0.04627744  0.64989849  0.18666195    -0.24300
C2062       C  0.10513950  0.68822227  0.12854957    -0.28900
C2063       C  0.10316594  0.70554676  0.11313176     0.06700
C2064       C  0.08643154  0.71340074  0.11283470    -0.27600
H2065       H  0.10512120  0.65466280  0.15598920     0.11400
H2066       H  0.07938292  0.63786315  0.18074133     0.12500
H2067       H  0.05317842  0.72529321  0.11765877     0.11600
H2068       H  0.02762202  0.70885096  0.14520623     0.10800
H2069       H  0.01494562  0.68185478  0.17714330     0.16200
H2070       H  0.04781560  0.63637831  0.19744917     0.12100
H2071       H  0.11801428  0.68203970  0.12794567     0.15000
H2072       H  0.08492258  0.72675067  0.10073090     0.14800
C2073       C  0.15215673  0.81139345  0.81513663    -0.18100
C2074       C  0.15103627  0.80628998  0.85930579    -0.20300
C2075       C  0.15999912  0.79128438  0.87404851     0.20400
C2076       C  0.17086766  0.78176018  0.84463836    -0.03200
C2077       C  0.17168208  0.78668350  0.79986714    -0.06300
C2078       C  0.16203903  0.80140223  0.78505300     0.20700
C2079       C  0.18136205  0.77635989  0.76957886     0.18800
C2080       C  0.19109450  0.76189719  0.78492096    -0.17700
C2081       C  0.19058016  0.75720825  0.82960292    -0.20000
C2082       C  0.18012782  0.76675727  0.85943140     0.20300
C2083       C  0.17794583  0.76105295  0.90313020    -0.33000
C2084       C  0.16612593  0.76981022  0.93114696     0.01000
C2085       C  0.15756063  0.78510889  0.91705331    -0.24300
C2086       C  0.16165719  0.80535133  0.74006159    -0.28900
C2087       C  0.17021659  0.79442846  0.70932074     0.06700
C2088       C  0.18045606  0.78021751  0.72431879    -0.27600
H2089       H  0.14476143  0.82277715  0.80416499     0.11400
H2090       H  0.14278973  0.81379960  0.88166015     0.12500
H2091       H  0.19873489  0.75394913  0.76218771     0.11600
H2092       H  0.19783770  0.74572447  0.84050230     0.10800
H2093       H  0.18447044  0.74918555  0.91446140     0.16200
H2094       H  0.14854674  0.79182386  0.93920894     0.12100
H2095       H  0.15373991  0.81633970  0.72876810     0.15000
H2096       H  0.18726798  0.77189367  0.70075001     0.14800
C2097       C  0.16983515  0.73557404  0.36475664    -0.18100
C2098       C  0.17199768  0.73036624  0.32060342    -0.20300
C2099       C  0.16489179  0.74050373  0.28617565     0.20400
C2100       C  0.15527721  0.75589803  0.29660641    -0.03200
C2101       C  0.15294791  0.76103048  0.34098980    -0.06300
C2102       C  0.16041574  0.75094130  0.37529733     0.20700
C2103       C  0.14327931  0.77639781  0.35092190     0.18800
C2104       C  0.13595191  0.78644925  0.31680082    -0.17700
C2105       C  0.13838411  0.78146726  0.27293692    -0.20000
C2106       C  0.14809782  0.76632053  0.26264446     0.20300
C2107       C  0.15086600  0.76158379  0.21879134    -0.33000
C2108       C  0.16064392  0.74648913  0.20773435     0.01000
C2109       C  0.16737892  0.73574127  0.24155549    -0.24300
C2110       C  0.15838554  0.75650227  0.41936384    -0.28900
C2111       C  0.14877602  0.77188643  0.42927828     0.06700
C2112       C  0.14119847  0.78162404  0.39476675    -0.27600
H2113       H  0.17559566  0.72761216  0.39066781     0.11400
H2114       H  0.17938214  0.71850582  0.31336833     0.12500
H2115       H  0.12847481  0.79825776  0.32402767     0.11600
H2116       H  0.13275359  0.78952660  0.24701845     0.10800
H2117       H  0.14527572  0.76975050  0.19297210     0.16200
H2118       H  0.17484319  0.72404329  0.23318567     0.12100
H2119       H  0.16420530  0.74886069  0.44581336     0.15000
H2120       H  0.13385794  0.79353904  0.40189745     0.14800
C2121       C  0.44691950  0.82226393  0.93648448    -0.18100
C2122       C  0.43821015  0.80685032  0.94934783    -0.20300
C2123       C  0.42036356  0.80435201  0.93907120     0.20400
C2124       C  0.41111840  0.81762636  0.91621834    -0.03200
C2125       C  0.41983388  0.83327898  0.90379786    -0.06300
C2126       C  0.43788907  0.83549199  0.91343604     0.20700
C2127       C  0.41055493  0.84656745  0.88106580     0.18800
C2128       C  0.39270960  0.84408629  0.87080264    -0.17700
C2129       C  0.38412030  0.82850827  0.88276455    -0.20000
C2130       C  0.39320575  0.81521986  0.90544107     0.20300
C2131       C  0.38465676  0.79960744  0.91765594    -0.33000
C2132       C  0.39369849  0.78637824  0.94097814     0.01000
C2133       C  0.41160140  0.78883830  0.95133515    -0.24300
C2134       C  0.44668523  0.85066851  0.89877458    -0.28900
C2135       C  0.43755092  0.86380364  0.87551156     0.06700
C2136       C  0.41940413  0.86188467  0.86784542    -0.27600
H2137       H  0.46075665  0.82378389  0.94429352     0.11400
H2138       H  0.44548039  0.79681017  0.96701076     0.12500
H2139       H  0.38544503  0.85411627  0.85309983     0.11600
H2140       H  0.37036415  0.82684695  0.87423135     0.10800
H2141       H  0.37087226  0.79788633  0.90943748     0.16200
H2142       H  0.41871567  0.77874790  0.96924196     0.12100
H2143       H  0.46068737  0.85213881  0.90470337     0.15000
H2144       H  0.41236721  0.87191273  0.84955594     0.14800
C2145       C  0.36104443  0.78993084  0.73075054    -0.18100
C2146       C  0.35841979  0.78456470  0.77438273    -0.20300
C2147       C  0.35089069  0.76807715  0.78344852     0.20400
C2148       C  0.34554597  0.75702180  0.74847779    -0.03200
C2149       C  0.34788789  0.76256687  0.70456788    -0.06300
C2150       C  0.35598456  0.77894408  0.69570333     0.20700
C2151       C  0.34256049  0.75150346  0.66954230     0.18800
C2152       C  0.33488473  0.73510303  0.67870054    -0.17700
C2153       C  0.33293130  0.72942554  0.72230125    -0.20000
C2154       C  0.33839677  0.74018848  0.75734242     0.20300
C2155       C  0.33741134  0.73419986  0.80099811    -0.33000
C2156       C  0.34298758  0.74509425  0.83556703     0.01000
C2157       C  0.34922195  0.76215136  0.82684309    -0.24300
C2158       C  0.35920992  0.78385496  0.65192967    -0.28900
C2159       C  0.35407392  0.77276510  0.61713541     0.06700
C2160       C  0.34542000  0.75684635  0.62596112    -0.27600
H2161       H  0.36719005  0.80256107  0.72441644     0.11400
H2162       H  0.36262102  0.79314115  0.80102274     0.12500
H2163       H  0.33073517  0.72649941  0.65208663     0.11600
H2164       H  0.32734566  0.71653611  0.72860117     0.10800
H2165       H  0.33264041  0.72103956  0.80810206     0.16200
H2166       H  0.35377922  0.77040888  0.85378583     0.12100
H2167       H  0.36569725  0.79626406  0.64483266     0.15000
H2168       H  0.34153580  0.74832763  0.59888240     0.14800
C2169       C  0.34346192  0.80316009  0.21972179    -0.18100
C2170       C  0.34617487  0.79810004  0.17574834    -0.20300
C2171       C  0.35325397  0.78148313  0.16576437     0.20400
C2172       C  0.35750969  0.76979621  0.20032408    -0.03200
C2173       C  0.35455660  0.77479484  0.24448755    -0.06300
C2174       C  0.34764871  0.79162515  0.25435632     0.20700
C2175       C  0.35869803  0.76297664  0.27877523     0.18800
C2176       C  0.36573791  0.74636235  0.26895463    -0.17700
C2177       C  0.36879746  0.74146713  0.22524675    -0.20000
C2178       C  0.36477978  0.75310000  0.19082144     0.20300
C2179       C  0.36785990  0.74824510  0.14704465    -0.33000
C2180       C  0.36349939  0.75969676  0.11246328     0.01000
C2181       C  0.35614742  0.77629063  0.12190547    -0.24300
C2182       C  0.34529514  0.79664485  0.29866333    -0.28900
C2183       C  0.34952837  0.78488032  0.33286590     0.06700
C2184       C  0.35601352  0.76802788  0.32246542    -0.27600
H2185       H  0.33812089  0.81610077  0.22663851     0.11400
H2186       H  0.34283168  0.80721880  0.14956258     0.12500
H2187       H  0.36899294  0.73719320  0.29512371     0.11600
H2188       H  0.37431430  0.72859548  0.21836369     0.10800
H2189       H  0.37329346  0.73535203  0.13983693     0.16200
H2190       H  0.35277859  0.78516347  0.09518418     0.12100
H2191       H  0.34032009  0.80965575  0.30650260     0.15000
H2192       H  0.35956689  0.75891756  0.34855096     0.14800
C2193       C  0.24397725  0.70080770  0.98147622    -0.18100
C2194       C  0.26194643  0.70029560  0.97084667    -0.20300
C2195       C  0.27422622  0.70990829  0.99580131     0.20400
C2196       C  0.26834138  0.71974979  0.03259257    -0.03200
C2197       C  0.25022284  0.72039362  0.04307140    -0.06300
C2198       C  0.23793879  0.71102788  0.01710052     0.20700
C2199       C  0.24435723  0.73095093  0.07855720     0.18800
C2200       C  0.25663087  0.74011198  0.10444065    -0.17700
C2201       C  0.27455667  0.73935915  0.09429978    -0.20000
C2202       C  0.28046860  0.72951851  0.05796691     0.20300
C2203       C  0.29819498  0.72994212  0.04550955    -0.33000
C2204       C  0.30407292  0.72098361  0.00755400     0.01000
C2205       C  0.29213056  0.71048860  0.98362008    -0.24300
C2206       C  0.21982793  0.71260135  0.02624807    -0.28900
C2207       C  0.21393717  0.72384889  0.06012706     0.06700
C2208       C  0.22628731  0.73268806  0.08660926    -0.27600
H2209       H  0.23475320  0.69352147  0.96119830     0.11400
H2210       H  0.26619585  0.69263928  0.94255862     0.12500
H2211       H  0.25232958  0.74816402  0.13197642     0.11600
H2212       H  0.28375306  0.74686002  0.11418496     0.10800
H2213       H  0.30734380  0.73788908  0.06448164     0.16200
H2214       H  0.29654909  0.70358095  0.95428251     0.12100
H2215       H  0.21030747  0.70584062  0.00564938     0.15000
H2216       H  0.22176974  0.74123597  0.11300872     0.14800
C2217       C  0.56851610  0.67552972  0.47251686    -0.18100
C2218       C  0.55432538  0.66566828  0.45637680    -0.20300
C2219       C  0.54974522  0.66642371  0.41149854     0.20400
C2220       C  0.55973018  0.67706168  0.38249024    -0.03200
C2221       C  0.57425749  0.68676233  0.39862651    -0.06300
C2222       C  0.57849461  0.68616786  0.44396419     0.20700
C2223       C  0.58450541  0.69707168  0.36941827     0.18800
C2224       C  0.58003351  0.69766805  0.32446768    -0.17700
C2225       C  0.56543264  0.68834173  0.30864937    -0.20000
C2226       C  0.55516529  0.67807537  0.33738862     0.20300
C2227       C  0.54040067  0.66884393  0.32183252    -0.33000
C2228       C  0.53045527  0.65817651  0.35043950     0.01000
C2229       C  0.53532425  0.65682063  0.39511665    -0.24300
C2230       C  0.59266190  0.69617747  0.45992898    -0.28900
C2231       C  0.60300783  0.70635965  0.43102371     0.06700
C2232       C  0.59901027  0.70659289  0.38571255    -0.27600
H2233       H  0.57170601  0.67481730  0.50734820     0.11400
H2234       H  0.54683758  0.65755866  0.47909446     0.12500
H2235       H  0.58774870  0.70547705  0.30156963     0.11600
H2236       H  0.56216909  0.68915606  0.27387806     0.10800
H2237       H  0.53679985  0.66969245  0.28724525     0.16200
H2238       H  0.52765705  0.64859348  0.41721808     0.12100
H2239       H  0.59594408  0.69572081  0.49477543     0.15000
H2240       H  0.60702239  0.71438386  0.36338472     0.14800
C2241       C  0.44287518  0.73292137  0.43677189    -0.18100
C2242       C  0.45257757  0.71849941  0.42141178    -0.20300
C2243       C  0.44401050  0.70293128  0.40855948     0.20400
C2244       C  0.42549305  0.70184653  0.41147237    -0.03200
C2245       C  0.41570357  0.71643997  0.42660391    -0.06300
C2246       C  0.42444232  0.73204658  0.43936532     0.20700
C2247       C  0.39717253  0.71545140  0.42857544     0.18800
C2248       C  0.38858705  0.69991701  0.41561868    -0.17700
C2249       C  0.39828725  0.68542431  0.40090119    -0.20000
C2250       C  0.41671865  0.68627502  0.39864977     0.20300
C2251       C  0.42646908  0.67197622  0.38270390    -0.33000
C2252       C  0.44487381  0.67312343  0.37835542     0.01000
C2253       C  0.45358248  0.68858441  0.39189141    -0.24300
C2254       C  0.41459937  0.74651906  0.45426410    -0.28900
C2255       C  0.39610655  0.74562801  0.45640241     0.06700
C2256       C  0.38752660  0.73001845  0.44333190    -0.27600
H2257       H  0.44979083  0.74480857  0.44638515     0.11400
H2258       H  0.46678257  0.71955748  0.41935370     0.12500
H2259       H  0.37435349  0.69897903  0.41683634     0.11600
H2260       H  0.39136122  0.67359103  0.39092964     0.10800
H2261       H  0.41961102  0.66021261  0.37187438     0.16200
H2262       H  0.46776539  0.68958923  0.38861143     0.12100
H2263       H  0.42134807  0.75850144  0.46393529     0.15000
H2264       H  0.37327943  0.72917268  0.44449292     0.14800
C2265       C  0.39131165  0.67188768  0.21145373    -0.18100
C2266       C  0.38083224  0.67991728  0.17939226    -0.20300
C2267       C  0.38285311  0.67550707  0.13467812     0.20400
C2268       C  0.39489796  0.66221438  0.12224716    -0.03200
C2269       C  0.40551574  0.65414511  0.15459519    -0.06300
C2270       C  0.40398195  0.65936186  0.19921677     0.20700
C2271       C  0.41846323  0.64175128  0.14190979     0.18800
C2272       C  0.42007459  0.63695384  0.09731170    -0.17700
C2273       C  0.40956783  0.64499408  0.06519878    -0.20000
C2274       C  0.39728477  0.65795741  0.07720765     0.20300
C2275       C  0.38843165  0.66776103  0.04487135    -0.33000
C2276       C  0.37750430  0.68182099  0.05722033     0.01000
C2277       C  0.37414324  0.68515863  0.10195914    -0.24300
C2278       C  0.41584446  0.65276888  0.23039057    -0.28900
C2279       C  0.42918471  0.64110590  0.21749742     0.06700
C2280       C  0.43020642  0.63520280  0.17368004    -0.27600
H2281       H  0.38995711  0.67594584  0.24560575     0.11400
H2282       H  0.37162861  0.69007474  0.18939287     0.12500
H2283       H  0.42989949  0.62743508  0.08705773     0.11600
H2284       H  0.41152124  0.64156140  0.03079672     0.10800
H2285       H  0.39129291  0.66556457  0.01018803     0.16200
H2286       H  0.36602113  0.69632714  0.11115963     0.12100
H2287       H  0.41530314  0.65736911  0.26430104     0.15000
H2288       H  0.44074319  0.62636904  0.16394413     0.14800
C2289       C  0.44717238  0.31711580  0.12855909    -0.18100
C2290       C  0.43804563  0.30192237  0.11569697    -0.20300
C2291       C  0.41955417  0.30165666  0.11532482     0.20400
C2292       C  0.41016972  0.31679465  0.12861780    -0.03200
C2293       C  0.41938337  0.33222613  0.14095808    -0.06300
C2294       C  0.43797140  0.33237233  0.14098704     0.20700
C2295       C  0.40997999  0.34749126  0.15328192     0.18800
C2296       C  0.39150665  0.34705234  0.15425666    -0.17700
C2297       C  0.38239448  0.33171907  0.14251693    -0.20000
C2298       C  0.39158504  0.31658210  0.12917324     0.20300
C2299       C  0.38250104  0.30139731  0.11548004    -0.33000
C2300       C  0.39172474  0.28649061  0.10022878     0.01000
C2301       C  0.41029154  0.28665601  0.10111792    -0.24300
C2302       C  0.44701717  0.34766899  0.15406204    -0.28900
C2303       C  0.43772646  0.36295401  0.16634362     0.06700
C2304       C  0.41920500  0.36281719  0.16514455    -0.27600
H2305       H  0.46143486  0.31696327  0.12855641     0.11400
H2306       H  0.44547151  0.29038464  0.10581622     0.12500
H2307       H  0.38408350  0.35859397  0.16413323     0.11600
H2308       H  0.36813317  0.33176752  0.14335821     0.10800
H2309       H  0.36822813  0.30141136  0.11535235     0.16200
H2310       H  0.41757555  0.27516762  0.09020003     0.12100
H2311       H  0.46128529  0.34763917  0.15516242     0.15000
H2312       H  0.41194095  0.37443134  0.17528736     0.14800
C2313       C  0.40173559  0.40197340  0.42369697    -0.18100
C2314       C  0.39158899  0.39189211  0.45299103    -0.20300
C2315       C  0.38320149  0.37643327  0.43856706     0.20400
C2316       C  0.38415529  0.37167419  0.39352736    -0.03200
C2317       C  0.39405804  0.38208233  0.36374623    -0.06300
C2318       C  0.40343280  0.39695435  0.37924630     0.20700
C2319       C  0.39566256  0.37682053  0.31920755     0.18800
C2320       C  0.38684594  0.36168019  0.30439033    -0.17700
C2321       C  0.37738449  0.35117955  0.33405433    -0.20000
C2322       C  0.37636355  0.35581515  0.37889415     0.20300
C2323       C  0.36892711  0.34421021  0.40985329    -0.33000
C2324       C  0.36898050  0.34835386  0.45517040     0.01000
C2325       C  0.37517931  0.36492496  0.46895263    -0.24300
C2326       C  0.41529450  0.40569831  0.35086841    -0.28900
C2327       C  0.41758471  0.39982053  0.30723807     0.06700
C2328       C  0.40716652  0.38594201  0.29115816    -0.27600
H2329       H  0.40873172  0.41337597  0.43617205     0.11400
H2330       H  0.39098616  0.39574818  0.48742799     0.12500
H2331       H  0.38795067  0.35749838  0.27022884     0.11600
H2332       H  0.37140539  0.33911221  0.32224279     0.10800
H2333       H  0.36424967  0.33140759  0.39917261     0.16200
H2334       H  0.37551779  0.36802247  0.50392077     0.12100
H2335       H  0.42361986  0.41615016  0.36350332     0.15000
H2336       H  0.40924862  0.38121431  0.25772061     0.14800
C2337       C  0.43680978  0.52897842  0.28549962    -0.18100
C2338       C  0.43565915  0.51094793  0.27545630    -0.20300
C2339       C  0.44970638  0.50219991  0.25462779     0.20400
C2340       C  0.46492131  0.51193527  0.24310686    -0.03200
C2341       C  0.46603082  0.53013079  0.25296082    -0.06300
C2342       C  0.45200269  0.53867707  0.27476343     0.20700
C2343       C  0.48137157  0.53965735  0.24181834     0.18800
C2344       C  0.49532535  0.53108221  0.22038440    -0.17700
C2345       C  0.49428990  0.51310806  0.21096618    -0.20000
C2346       C  0.47924147  0.50342255  0.22259694     0.20300
C2347       C  0.47851751  0.48527451  0.21497411    -0.33000
C2348       C  0.46368375  0.47525883  0.22725811     0.01000
C2349       C  0.44907290  0.48387179  0.24615333    -0.24300
C2350       C  0.45361165  0.55661899  0.28628546    -0.28900
C2351       C  0.46911957  0.56608954  0.27629447     0.06700
C2352       C  0.48274443  0.55748801  0.25321017    -0.27600
H2353       H  0.42586944  0.53529835  0.30214471     0.11400
H2354       H  0.42386139  0.50378538  0.28459188     0.12500
H2355       H  0.50717813  0.53822157  0.21153038     0.11600
H2356       H  0.50536944  0.50672515  0.19505127     0.10800
H2357       H  0.48975359  0.47880073  0.19991176     0.16200
H2358       H  0.43763086  0.47625750  0.25587057     0.12100
H2359       H  0.44298727  0.56305685  0.30393311     0.15000
H2360       H  0.49471661  0.56455377  0.24496009     0.14800
C2361       C  0.56981013  0.70434252  0.95442646    -0.18100
C2362       C  0.57866554  0.71931358  0.96971425    -0.20300
C2363       C  0.59325932  0.72597673  0.94662999     0.20400
C2364       C  0.59911251  0.71738492  0.90795303    -0.03200
C2365       C  0.59001130  0.70247825  0.89212782    -0.06300
C2366       C  0.57530854  0.69587906  0.91557165     0.20700
C2367       C  0.59550623  0.69430552  0.85256940     0.18800
C2368       C  0.61029865  0.70073919  0.82991713    -0.17700
C2369       C  0.61954456  0.71528121  0.84612424    -0.20000
C2370       C  0.61393637  0.72379456  0.88480309     0.20300
C2371       C  0.62274734  0.73876036  0.90032965    -0.33000
C2372       C  0.61670058  0.74767983  0.93813130     0.01000
C2373       C  0.60201339  0.74115496  0.96126839    -0.24300
C2374       C  0.56632632  0.68102652  0.89951120    -0.28900
C2375       C  0.57158780  0.67317063  0.85971818     0.06700
C2376       C  0.58604267  0.67989720  0.83625764    -0.27600
H2377       H  0.55855542  0.69947418  0.97277026     0.11400
H2378       H  0.57405797  0.72572565  0.99957757     0.12500
H2379       H  0.61468591  0.69456298  0.79958424     0.11600
H2380       H  0.63091694  0.72003033  0.82805270     0.10800
H2381       H  0.63410616  0.74368072  0.88243960     0.16200
H2382       H  0.59748247  0.74780920  0.99089735     0.12100
H2383       H  0.55506675  0.67580552  0.91728385     0.15000
H2384       H  0.58999149  0.67376694  0.80546468     0.14800
C2385       C  0.60845806  0.65257661  0.56564085    -0.18100
C2386       C  0.59791898  0.64235260  0.59362262    -0.20300
C2387       C  0.59945389  0.64389998  0.63964935     0.20400
C2388       C  0.61230759  0.65527563  0.65768610    -0.03200
C2389       C  0.62265824  0.66590147  0.62947306    -0.06300
C2390       C  0.62053816  0.66470232  0.58325696     0.20700
C2391       C  0.63430782  0.67849062  0.64761794     0.18800
C2392       C  0.63638141  0.67947783  0.69361081    -0.17700
C2393       C  0.62647822  0.66861190  0.72152295    -0.20000
C2394       C  0.61407541  0.65682468  0.70392691     0.20300
C2395       C  0.60263459  0.64744228  0.73174103    -0.33000
C2396       C  0.58882016  0.63737021  0.71389044     0.01000
C2397       C  0.58763270  0.63519331  0.66790452    -0.24300
C2398       C  0.62964720  0.67644075  0.55563890    -0.28900
C2399       C  0.64017586  0.68988189  0.57374183     0.06700
C2400       C  0.64282212  0.69055377  0.61962447    -0.27600
H2401       H  0.60665696  0.65150841  0.53024410     0.11400
H2402       H  0.58820266  0.63360232  0.57924237     0.12500
H2403       H  0.64535034  0.68897452  0.70807817     0.11600
H2404       H  0.62805063  0.66988684  0.75692506     0.10800
H2405       H  0.60347259  0.64925054  0.76718382     0.16200
H2406       H  0.57693557  0.62747677  0.65413866     0.12100
H2407       H  0.62726488  0.67615416  0.52032351     0.15000
H2408       H  0.65080286  0.70101646  0.63359764     0.14800
C2409       C  0.43756079  0.65023150  0.83229545    -0.18100
C2410       C  0.42258865  0.65938705  0.84638952    -0.20300
C2411       C  0.42390850  0.67694385  0.86051792     0.20400
C2412       C  0.44040493  0.68552362  0.85909312    -0.03200
C2413       C  0.45552177  0.67629366  0.84468100    -0.06300
C2414       C  0.45411138  0.65848213  0.83193614     0.20700
C2415       C  0.47209624  0.68473920  0.84418612     0.18800
C2416       C  0.47332407  0.70244927  0.85719091    -0.17700
C2417       C  0.45837700  0.71155135  0.87177713    -0.20000
C2418       C  0.44191752  0.70313018  0.87344041     0.20300
C2419       C  0.42711485  0.71177533  0.89083451    -0.33000
C2420       C  0.41077615  0.70303634  0.89441191     0.01000
C2421       C  0.40918287  0.68579707  0.87775595    -0.24300
C2422       C  0.46930420  0.64911600  0.81992525    -0.28900
C2423       C  0.48597795  0.65728344  0.82020767     0.06700
C2424       C  0.48718737  0.67522831  0.83166658    -0.27600
H2425       H  0.43623499  0.63658281  0.82233816     0.11400
H2426       H  0.41003196  0.65261008  0.84712786     0.12500
H2427       H  0.48591222  0.70917459  0.85686579     0.11600
H2428       H  0.45975660  0.72509661  0.88252499     0.10800
H2429       H  0.42852034  0.72509970  0.90322670     0.16200
H2430       H  0.39671430  0.67891149  0.88031584     0.12100
H2431       H  0.46813214  0.63536765  0.81068652     0.15000
H2432       H  0.49992124  0.68168998  0.83190596     0.14800
C2433       C  0.48380892  0.62004368  0.06672586    -0.18100
C2434       C  0.48810866  0.61698955  0.02260554    -0.20300
C2435       C  0.50573352  0.61469514  0.01001140     0.20400
C2436       C  0.51915702  0.61497549  0.04213394    -0.03200
C2437       C  0.51478976  0.61777190  0.08679622    -0.06300
C2438       C  0.49706689  0.62062680  0.09884907     0.20700
C2439       C  0.52815434  0.61803530  0.11922645     0.18800
C2440       C  0.54574426  0.61545730  0.10653686    -0.17700
C2441       C  0.55011726  0.61300692  0.06200136    -0.20000
C2442       C  0.53693267  0.61286869  0.02951109     0.20300
C2443       C  0.54120552  0.61111975  0.98455575    -0.33000
C2444       C  0.52786275  0.61134552  0.95231481     0.01000
C2445       C  0.51015455  0.61266577  0.96559856    -0.24300
C2446       C  0.49289366  0.62422230  0.14277024    -0.28900
C2447       C  0.50609445  0.62459277  0.17512399     0.06700
C2448       C  0.52365786  0.62115727  0.16354376    -0.27600
H2449       H  0.47013832  0.62210104  0.07567358     0.11400
H2450       H  0.47768303  0.61676613  0.99820219     0.12500
H2451       H  0.55615979  0.61561482  0.13098737     0.11600
H2452       H  0.56381825  0.61136337  0.05292695     0.10800
H2453       H  0.55488256  0.61005424  0.97467168     0.16200
H2454       H  0.49971837  0.61274754  0.94118820     0.12100
H2455       H  0.47928267  0.62656999  0.15198293     0.15000
H2456       H  0.53380068  0.62141544  0.18873464     0.14800
C2457       C  0.47124336  0.62532150  0.60158464    -0.18100
C2458       C  0.46576052  0.62360219  0.55778237    -0.20300
C2459       C  0.47596752  0.61407037  0.52741731     0.20400
C2460       C  0.49149636  0.60559857  0.54159949    -0.03200
C2461       C  0.49693036  0.60716646  0.58587387    -0.06300
C2462       C  0.48693237  0.61740969  0.61568140     0.20700
C2463       C  0.51270735  0.59905955  0.59988238     0.18800
C2464       C  0.52268409  0.58918819  0.56972618    -0.17700
C2465       C  0.51738063  0.58779552  0.52565519    -0.20000
C2466       C  0.50197020  0.59617713  0.51118120     0.20300
C2467       C  0.49729439  0.59599082  0.46646710    -0.33000
C2468       C  0.48232724  0.60517022  0.45177500     0.01000
C2469       C  0.47137000  0.61360484  0.48271232    -0.24300
C2470       C  0.49311042  0.62004159  0.65864614    -0.28900
C2471       C  0.50891568  0.61229274  0.67224874     0.06700
C2472       C  0.51849701  0.60150327  0.64338155    -0.27600
H2473       H  0.46339558  0.63311544  0.62421733     0.11400
H2474       H  0.45378227  0.63013400  0.54737061     0.12500
H2475       H  0.53480402  0.58287991  0.57998514     0.11600
H2476       H  0.52552103  0.58047171  0.50269221     0.10800
H2477       H  0.50573859  0.58934061  0.44286989     0.16200
H2478       H  0.45981915  0.62073830  0.47171639     0.12100
H2479       H  0.48584476  0.62838180  0.68135512     0.15000
H2480       H  0.53081172  0.59572249  0.65422860     0.14800
C2481       C  0.45800870  0.32819179  0.62451092    -0.18100
C2482       C  0.47255235  0.33743889  0.64064163    -0.20300
C2483       C  0.47054869  0.35453288  0.65746102     0.20400
C2484       C  0.45368483  0.36231723  0.65879156    -0.03200
C2485       C  0.43895217  0.35286728  0.64317529    -0.06300
C2486       C  0.44120031  0.33581692  0.62543491     0.20700
C2487       C  0.42204664  0.36054451  0.64479798     0.18800
C2488       C  0.42002314  0.37758729  0.66211839    -0.17700
C2489       C  0.43467940  0.38704853  0.67711024    -0.20000
C2490       C  0.45157493  0.37958727  0.67527647     0.20300
C2491       C  0.46642470  0.38908200  0.68931479    -0.33000
C2492       C  0.48325729  0.38135953  0.68794079     0.01000
C2493       C  0.48516322  0.36402050  0.67253965    -0.24300
C2494       C  0.42664612  0.32674132  0.60847680    -0.28900
C2495       C  0.40978723  0.33430727  0.60979906     0.06700
C2496       C  0.40752404  0.35113182  0.62849909    -0.27600
H2497       H  0.45991832  0.31508792  0.61117196     0.11400
H2498       H  0.48541611  0.33128957  0.63949062     0.12500
H2499       H  0.40713881  0.38366256  0.66364879     0.11600
H2500       H  0.43280543  0.40024797  0.68994609     0.10800
H2501       H  0.46487710  0.40237816  0.70183747     0.16200
H2502       H  0.49811788  0.35803547  0.67145549     0.12100
H2503       H  0.42843060  0.31376019  0.59421617     0.15000
H2504       H  0.39456925  0.35710341  0.62910034     0.14800
C2505       C  0.48451873  0.43434922  0.51367445    -0.18100
C2506       C  0.47869931  0.43161134  0.47045784    -0.20300
C2507       C  0.49087489  0.42868342  0.43639506     0.20400
C2508       C  0.50911371  0.42946041  0.44545695    -0.03200
C2509       C  0.51496642  0.43189203  0.48915189    -0.06300
C2510       C  0.50258166  0.43399064  0.52344349     0.20700
C2511       C  0.53315809  0.43133613  0.49878063     0.18800
C2512       C  0.54534822  0.42955818  0.46420016    -0.17700
C2513       C  0.53956019  0.42753530  0.42066821    -0.20000
C2514       C  0.52148944  0.42698298  0.41121347     0.20300
C2515       C  0.51557020  0.42326124  0.36848610    -0.33000
C2516       C  0.49751737  0.42127414  0.36018882     0.01000
C2517       C  0.48518754  0.42434021  0.39379813    -0.24300
C2518       C  0.50839096  0.43475929  0.56716953    -0.28900
C2519       C  0.52639056  0.43287777  0.57740332     0.06700
C2520       C  0.53875846  0.43172763  0.54292479    -0.27600
H2521       H  0.47487152  0.43610290  0.53971017     0.11400
H2522       H  0.46467355  0.43132101  0.46388678     0.12500
H2523       H  0.55936012  0.42929593  0.47094507     0.11600
H2524       H  0.54919733  0.42578462  0.39462503     0.10800
H2525       H  0.52499335  0.42105223  0.34211573     0.16200
H2526       H  0.47122437  0.42319491  0.38677376     0.12100
H2527       H  0.49870288  0.43573501  0.59339375     0.15000
H2528       H  0.55265696  0.43047877  0.55045872     0.14800
C2529       C  0.46282424  0.42951365  0.96436164    -0.18100
C2530       C  0.46845786  0.42790888  0.92050800    -0.20300
C2531       C  0.48538324  0.42155714  0.91083707     0.20400
C2532       C  0.49669682  0.41659912  0.94561794    -0.03200
C2533       C  0.49115687  0.41853041  0.98969700    -0.06300
C2534       C  0.47411002  0.42499251  0.99921077     0.20700
C2535       C  0.50273600  0.41406480  0.02424354     0.18800
C2536       C  0.51949289  0.40729583  0.01474685    -0.17700
C2537       C  0.52486326  0.40508392  0.97105878    -0.20000
C2538       C  0.51362041  0.40982259  0.93639728     0.20300
C2539       C  0.51909259  0.40803557  0.89265841    -0.33000
C2540       C  0.50808728  0.41334700  0.85801065     0.01000
C2541       C  0.49126613  0.42011749  0.86709397    -0.24300
C2542       C  0.46874973  0.42687681  0.04338207    -0.28900
C2543       C  0.48048115  0.42284983  0.07767549     0.06700
C2544       C  0.49738603  0.41643110  0.06781503    -0.27600
H2545       H  0.44970624  0.43445554  0.97103567     0.11400
H2546       H  0.45958270  0.43165627  0.89413973     0.12500
H2547       H  0.52844298  0.40372281  0.04111231     0.11600
H2548       H  0.53785777  0.39983121  0.96437887     0.10800
H2549       H  0.53210128  0.40285355  0.88553033     0.16200
H2550       H  0.48271569  0.42399309  0.84013461     0.12100
H2551       H  0.45567239  0.43171673  0.05108344     0.15000
H2552       H  0.50633242  0.41291499  0.09429042     0.14800
C2553       C  0.53205178  0.52096923  0.84499723    -0.18100
C2554       C  0.53151362  0.50315852  0.83364737    -0.20300
C2555       C  0.54156198  0.49680541  0.79817141     0.20400
C2556       C  0.55279044  0.50832988  0.77484788    -0.03200
C2557       C  0.55339950  0.52636460  0.78648096    -0.06300
C2558       C  0.54269022  0.53270427  0.82113221     0.20700
C2559       C  0.56417489  0.53814199  0.76245946     0.18800
C2560       C  0.57459726  0.53159053  0.72774630    -0.17700
C2561       C  0.57395545  0.51369171  0.71612358    -0.20000
C2562       C  0.56290910  0.50196264  0.73904946     0.20300
C2563       C  0.56130487  0.48416348  0.72604878    -0.33000
C2564       C  0.54947940  0.47285448  0.74814138     0.01000
C2565       C  0.54005009  0.47924696  0.78478694    -0.24300
C2566       C  0.54219647  0.55076976  0.83018744    -0.28900
C2567       C  0.55226303  0.56273557  0.80529064     0.06700
C2568       C  0.56371691  0.55630578  0.77241240    -0.27600
H2569       H  0.52383378  0.52564132  0.87184506     0.11400
H2570       H  0.52290618  0.49441856  0.85198435     0.12500
H2571       H  0.58297257  0.54038665  0.70893374     0.11600
H2572       H  0.58186541  0.50908990  0.68863430     0.10800
H2573       H  0.56861435  0.47935015  0.69773639     0.16200
H2574       H  0.53110420  0.47058552  0.80239643     0.12100
H2575       H  0.53345736  0.55565038  0.85578904     0.15000
H2576       H  0.57141873  0.56549627  0.75295004     0.14800
C2577       C  0.61872255  0.18633270  0.13406639    -0.18100
C2578       C  0.62780189  0.20171213  0.12234908    -0.20300
C2579       C  0.61857400  0.21709293  0.11113292     0.20400
C2580       C  0.59998761  0.21690286  0.11145817    -0.03200
C2581       C  0.59082017  0.20140946  0.12354303    -0.06300
C2582       C  0.60023521  0.18606118  0.13501760     0.20700
C2583       C  0.57224632  0.20139880  0.12493500     0.18800
C2584       C  0.56299750  0.21670731  0.11336700    -0.17700
C2585       C  0.57206246  0.23196655  0.10091946    -0.20000
C2586       C  0.59054006  0.23223029  0.10007130     0.20300
C2587       C  0.59969424  0.24755661  0.08797825    -0.33000
C2588       C  0.61823848  0.24792509  0.08740374     0.01000
C2589       C  0.62757518  0.23262095  0.09945286    -0.24300
C2590       C  0.59102535  0.17092382  0.14865333    -0.28900
C2591       C  0.57252369  0.17106499  0.15197170     0.06700
C2592       C  0.56324712  0.18627665  0.13916727    -0.27600
H2593       H  0.62617373  0.17469723  0.14288643     0.11400
H2594       H  0.64207267  0.20158546  0.12218552     0.12500
H2595       H  0.54873669  0.21692271  0.11425947     0.11600
H2596       H  0.56460563  0.24361976  0.09224698     0.10800
H2597       H  0.59232894  0.25924252  0.07902608     0.16200
H2598       H  0.64185215  0.23268504  0.09900842     0.12100
H2599       H  0.59831376  0.15937369  0.15899667     0.15000
H2600       H  0.54900426  0.18653752  0.14161118     0.14800
C2601       C  0.63769567  0.36927594  0.85999347    -0.18100
C2602       C  0.62856925  0.37866648  0.82746893    -0.20300
C2603       C  0.61250378  0.38691324  0.83743433     0.20400
C2604       C  0.60611142  0.38658857  0.88129303    -0.03200
C2605       C  0.61530453  0.37711224  0.91407098    -0.06300
C2606       C  0.63091304  0.36796725  0.90303006     0.20700
C2607       C  0.60816581  0.37571317  0.95701576     0.18800
C2608       C  0.59260475  0.38472185  0.96767117    -0.17700
C2609       C  0.58350269  0.39408849  0.93522447    -0.20000
C2610       C  0.58983599  0.39457307  0.89168801     0.20300
C2611       C  0.57953098  0.40166503  0.85778191    -0.33000
C2612       C  0.58525057  0.40086661  0.81373114     0.01000
C2613       C  0.60206272  0.39426366  0.80384698    -0.24300
C2614       C  0.63871912  0.35673180  0.93429591    -0.28900
C2615       C  0.63084747  0.35438519  0.97583942     0.06700
C2616       C  0.61600219  0.36434287  0.98757906    -0.27600
H2617       H  0.64970349  0.36244302  0.85101368     0.11400
H2618       H  0.63371707  0.37886807  0.79407264     0.12500
H2619       H  0.58707566  0.38390364  0.00063209     0.11600
H2620       H  0.57112278  0.40031487  0.94374510     0.10800
H2621       H  0.56645596  0.40663371  0.86512980     0.16200
H2622       H  0.60628955  0.39340793  0.76967359     0.12100
H2623       H  0.65005395  0.34882853  0.92524287     0.15000
H2624       H  0.60993864  0.36237479  0.01968176     0.14800
C2625       C  0.55405950  0.32364201  0.16470390    -0.18100
C2626       C  0.53891746  0.33263107  0.17870267    -0.20300
C2627       C  0.53933762  0.35091236  0.18581178     0.20400
C2628       C  0.55529435  0.36013569  0.17911079    -0.03200
C2629       C  0.57064430  0.35102165  0.16561455    -0.06300
C2630       C  0.56996614  0.33272146  0.15788638     0.20700
C2631       C  0.58654740  0.36030716  0.15885712     0.18800
C2632       C  0.58699624  0.37856918  0.16587950    -0.17700
C2633       C  0.57178326  0.38760356  0.17871738    -0.20000
C2634       C  0.55587594  0.37853553  0.18518127     0.20300
C2635       C  0.54052856  0.38760521  0.19721286    -0.33000
C2636       C  0.52453875  0.37860815  0.20419427     0.01000
C2637       C  0.52408756  0.36017338  0.19890941    -0.24300
C2638       C  0.58502670  0.32395201  0.14208598    -0.28900
C2639       C  0.60082080  0.33321957  0.13386227     0.06700
C2640       C  0.60155466  0.35133083  0.14362169    -0.27600
H2641       H  0.55328382  0.30958121  0.15884611     0.11400
H2642       H  0.52681871  0.32530433  0.18348468     0.12500
H2643       H  0.59905700  0.38591872  0.16074934     0.11600
H2644       H  0.57244135  0.40174770  0.18335010     0.10800
H2645       H  0.54106857  0.40178346  0.20147294     0.16200
H2646       H  0.51181850  0.35314132  0.20387639     0.12100
H2647       H  0.58425552  0.30999362  0.13475689     0.15000
H2648       H  0.61353014  0.35866373  0.13709800     0.14800
C2649       C  0.74888983  0.34101395  0.05379603    -0.18100
C2650       C  0.76705673  0.34113541  0.04483961    -0.20300
C2651       C  0.77443066  0.32905194  0.01486846     0.20400
C2652       C  0.76319955  0.31707766  0.99285809    -0.03200
C2653       C  0.74487227  0.31704868  0.00163427    -0.06300
C2654       C  0.73767333  0.32886872  0.03283445     0.20700
C2655       C  0.73386178  0.30476956  0.98019581     0.18800
C2656       C  0.74107087  0.29294491  0.94949198    -0.17700
C2657       C  0.75915808  0.29286574  0.94113635    -0.20000
C2658       C  0.77032884  0.30469968  0.96306278     0.20300
C2659       C  0.78856367  0.30392622  0.95668723    -0.33000
C2660       C  0.80001131  0.31533935  0.97945669     0.01000
C2661       C  0.79282695  0.32826427  0.00764275    -0.24300
C2662       C  0.71956716  0.32784228  0.04358499    -0.28900
C2663       C  0.70867767  0.31502156  0.02366819     0.06700
C2664       C  0.71593821  0.30397639  0.99096979    -0.27600
H2665       H  0.74365685  0.35024707  0.07775637     0.11400
H2666       H  0.77539315  0.35045635  0.06205831     0.12500
H2667       H  0.73277239  0.28346527  0.93269398     0.11600
H2668       H  0.76445445  0.28332129  0.91803895     0.10800
H2669       H  0.79394498  0.29403785  0.93459663     0.16200
H2670       H  0.80154415  0.33703344  0.02551433     0.12100
H2671       H  0.71417226  0.33644229  0.06878551     0.15000
H2672       H  0.70772978  0.29421222  0.97488283     0.14800
C2673       C  0.88388463  0.20175138  0.92675296    -0.18100
C2674       C  0.89301231  0.18696661  0.91129393    -0.20300
C2675       C  0.91140969  0.18735312  0.90693082     0.20400
C2676       C  0.92069946  0.20282473  0.91826306    -0.03200
C2677       C  0.91148085  0.21775768  0.93388882    -0.06300
C2678       C  0.89299281  0.21720599  0.93811363     0.20700
C2679       C  0.92075843  0.23327133  0.94488475     0.18800
C2680       C  0.93914087  0.23370887  0.94019891    -0.17700
C2681       C  0.94826179  0.21894900  0.92458747    -0.20000
C2682       C  0.93916496  0.20346429  0.91344809     0.20300
C2683       C  0.94817820  0.18874587  0.89677304    -0.33000
C2684       C  0.93900726  0.17331023  0.88482849     0.01000
C2685       C  0.92062394  0.17267884  0.89060198    -0.24300
C2686       C  0.88391465  0.23214495  0.95326285    -0.28900
C2687       C  0.89304212  0.24773442  0.96421382     0.06700
C2688       C  0.91150384  0.24811408  0.96001178    -0.27600
H2689       H  0.86967994  0.20111595  0.92967977     0.11400
H2690       H  0.88565569  0.17523749  0.90253612     0.12500
H2691       H  0.94647265  0.24551433  0.94841320     0.11600
H2692       H  0.96243994  0.21967853  0.92100725     0.10800
H2693       H  0.96232590  0.18943963  0.89228651     0.16200
H2694       H  0.91338429  0.16099590  0.88083682     0.12100
H2695       H  0.86969707  0.23164388  0.95615859     0.15000
H2696       H  0.91869654  0.26002330  0.96811610     0.14800
C2697       C  0.88458443  0.37664845  0.22200063    -0.18100
C2698       C  0.87502759  0.36582511  0.19316905    -0.20300
C2699       C  0.87923624  0.36521342  0.14802170     0.20400
C2700       C  0.89253305  0.37644275  0.13135262    -0.03200
C2701       C  0.90242983  0.38707888  0.16058389    -0.06300
C2702       C  0.89868544  0.38687104  0.20627138     0.20700
C2703       C  0.91687408  0.39690985  0.14447005     0.18800
C2704       C  0.92045364  0.39708616  0.09899623    -0.17700
C2705       C  0.91040584  0.38688431  0.06992041    -0.20000
C2706       C  0.89677286  0.37613254  0.08596104     0.20300
C2707       C  0.88814871  0.36421799  0.05790885    -0.33000
C2708       C  0.87598410  0.35201465  0.07495595     0.01000
C2709       C  0.87123735  0.35282354  0.11978404    -0.24300
C2710       C  0.90992618  0.39574975  0.23571058    -0.28900
C2711       C  0.92525515  0.40413062  0.22011058     0.06700
C2712       C  0.92824381  0.40528069  0.17438049    -0.27600
H2713       H  0.88146596  0.37640021  0.25692218     0.11400
H2714       H  0.86472424  0.35747639  0.20647374     0.12500
H2715       H  0.93141993  0.40465697  0.08606424     0.11600
H2716       H  0.91379497  0.38681457  0.03515639     0.10800
H2717       H  0.89201608  0.36337964  0.02346382     0.16200
H2718       H  0.86193137  0.34333353  0.13293902     0.12100
H2719       H  0.90774345  0.39458785  0.27100126     0.15000
H2720       H  0.94009208  0.41168072  0.16232761     0.14800
C2721       C  0.93824749  0.38281335  0.85436542    -0.18100
C2722       C  0.92345515  0.37321958  0.86755610    -0.20300
C2723       C  0.92540262  0.35703697  0.88927301     0.20400
C2724       C  0.94241006  0.35040790  0.89784971    -0.03200
C2725       C  0.95734995  0.35997005  0.88392379    -0.06300
C2726       C  0.95522101  0.37626780  0.86219939     0.20700
C2727       C  0.97438018  0.35323455  0.89169759     0.18800
C2728       C  0.97631388  0.33717519  0.91412903    -0.17700
C2729       C  0.96149054  0.32784439  0.92868051    -0.20000
C2730       C  0.94448144  0.33432953  0.92062347     0.20300
C2731       C  0.92950903  0.32523153  0.93559300    -0.33000
C2732       C  0.91251505  0.33189699  0.92739011     0.01000
C2733       C  0.91061092  0.34760572  0.90343476    -0.24300
C2734       C  0.97007969  0.38566987  0.84823644    -0.28900
C2735       C  0.98707780  0.37883671  0.85471117     0.06700
C2736       C  0.98913873  0.36263707  0.87667482    -0.27600
H2737       H  0.93640753  0.39531377  0.83776875     0.11400
H2738       H  0.91047400  0.37852200  0.86103148     0.12500
H2739       H  0.98929761  0.33185274  0.92052521     0.11600
H2740       H  0.96333036  0.31554189  0.94618594     0.10800
H2741       H  0.93107325  0.31311888  0.95411750     0.16200
H2742       H  0.89758707  0.35295030  0.89754523     0.12100
H2743       H  0.96837674  0.39813162  0.83131001     0.15000
H2744       H  0.00222443  0.35739116  0.88223584     0.14800
C2745       C  0.67611606  0.30189792  0.35170553    -0.18100
C2746       C  0.67767175  0.30773124  0.30804643    -0.20300
C2747       C  0.67202999  0.29703379  0.27301255     0.20400
C2748       C  0.66494576  0.28018147  0.28204406    -0.03200
C2749       C  0.66297066  0.27450018  0.32596052    -0.06300
C2750       C  0.66860638  0.28540664  0.36097193     0.20700
C2751       C  0.65502280  0.25804268  0.33482527     0.18800
C2752       C  0.64968594  0.24716948  0.29989263    -0.17700
C2753       C  0.65199425  0.25263975  0.25631815    -0.20000
C2754       C  0.65945930  0.26914209  0.24722091     0.20300
C2755       C  0.66111495  0.27495672  0.20383779    -0.33000
C2756       C  0.66757198  0.29188662  0.19467416     0.01000
C2757       C  0.67299887  0.30294715  0.22917229    -0.24300
C2758       C  0.66623773  0.27977480  0.40462033    -0.28900
C2759       C  0.65772602  0.26373458  0.41332843     0.06700
C2760       C  0.65225558  0.25288712  0.37850980    -0.27600
H2761       H  0.68048918  0.31040607  0.37824921     0.11400
H2762       H  0.68321029  0.32064639  0.30169831     0.12500
H2763       H  0.64363344  0.23448868  0.30628602     0.11600
H2764       H  0.64768653  0.24409439  0.22974564     0.10800
H2765       H  0.65656101  0.26658669  0.17710625     0.16200
H2766       H  0.67786965  0.31605710  0.22185455     0.12100
H2767       H  0.67034869  0.28812260  0.43178443     0.15000
H2768       H  0.64584238  0.24042051  0.38554980     0.14800
C2769       C  0.66277762  0.23746005  0.85329394    -0.18100
C2770       C  0.66533652  0.23237232  0.80935844    -0.20300
C2771       C  0.66188001  0.24420517  0.77489789     0.20400
C2772       C  0.65574615  0.26132886  0.78480363    -0.03200
C2773       C  0.65291079  0.26636012  0.82896151    -0.06300
C2774       C  0.65657407  0.25440023  0.86336335     0.20700
C2775       C  0.64640159  0.28335894  0.83865643     0.18800
C2776       C  0.64298108  0.29522249  0.80429110    -0.17700
C2777       C  0.64597764  0.29029880  0.76052587    -0.20000
C2778       C  0.65230866  0.27340195  0.75058212     0.20300
C2779       C  0.65498130  0.26830193  0.70687721    -0.33000
C2780       C  0.66071965  0.25115765  0.69656751     0.01000
C2781       C  0.66422643  0.23917250  0.73071214    -0.24300
C2782       C  0.65403081  0.25964167  0.90721760    -0.28900
C2783       C  0.64752573  0.27652683  0.91689321     0.06700
C2784       C  0.64355249  0.28824462  0.88257748    -0.27600
H2785       H  0.66559546  0.22812746  0.87939851     0.11400
H2786       H  0.67003084  0.21919245  0.80233476     0.12500
H2787       H  0.63802801  0.30831814  0.81127548     0.11600
H2788       H  0.64323989  0.29966337  0.73442608     0.10800
H2789       H  0.65202071  0.27760314  0.68075085     0.16200
H2790       H  0.66863966  0.22595619  0.72291457     0.12100
H2791       H  0.65700018  0.25057591  0.93383863     0.15000
H2792       H  0.63870302  0.30134083  0.89016690     0.14800
C2793       C  0.60637361  0.13562577  0.42248852    -0.18100
C2794       C  0.61636928  0.14508605  0.45327047    -0.20300
C2795       C  0.62535027  0.16044989  0.44057353     0.20400
C2796       C  0.62500189  0.16582203  0.39591248    -0.03200
C2797       C  0.61486604  0.15634690  0.36496529    -0.06300
C2798       C  0.60515116  0.14139990  0.37857780     0.20700
C2799       C  0.61343998  0.16258723  0.32120504     0.18800
C2800       C  0.62285853  0.17759096  0.30804032    -0.17700
C2801       C  0.63293084  0.18693957  0.33864949    -0.20000
C2802       C  0.63365290  0.18144535  0.38281919     0.20300
C2803       C  0.64153232  0.19213318  0.41477843    -0.33000
C2804       C  0.64053829  0.18763816  0.45964510     0.01000
C2805       C  0.63337438  0.17133863  0.47225916    -0.24300
C2806       C  0.59348635  0.13329628  0.34883069    -0.28900
C2807       C  0.59131947  0.14025537  0.30631943     0.06700
C2808       C  0.60169088  0.15445389  0.29218359    -0.27600
H2809       H  0.59904613  0.12417339  0.43345478     0.11400
H2810       H  0.61651329  0.14077325  0.48736091     0.12500
H2811       H  0.62190133  0.18246915  0.27450669     0.11600
H2812       H  0.63953261  0.19889772  0.32819600     0.10800
H2813       H  0.64697770  0.20479869  0.40530810     0.16200
H2814       H  0.63236657  0.16806117  0.50701842     0.12100
H2815       H  0.58517500  0.12250464  0.35967285     0.15000
H2816       H  0.59974535  0.15984940  0.25936934     0.14800
C2817       C  0.54060557  0.20583669  0.67112613    -0.18100
C2818       C  0.55517692  0.21480328  0.65376528    -0.20300
C2819       C  0.57105870  0.20588276  0.64587468     0.20400
C2820       C  0.57234370  0.18780181  0.65617110    -0.03200
C2821       C  0.55755136  0.17869919  0.67293610    -0.06300
C2822       C  0.54158088  0.18775188  0.68043469     0.20700
C2823       C  0.55868663  0.16049709  0.68157563     0.18800
C2824       C  0.57462450  0.15160355  0.67425043    -0.17700
C2825       C  0.58934435  0.16066073  0.65829143    -0.20000
C2826       C  0.58830860  0.17871935  0.64894308     0.20300
C2827       C  0.60282569  0.18774269  0.63143530    -0.33000
C2828       C  0.60142047  0.20556371  0.61953826     0.01000
C2829       C  0.58555192  0.21460653  0.62702452    -0.24300
C2830       C  0.52683769  0.17850678  0.69650091    -0.28900
C2831       C  0.52778421  0.16026205  0.70447124     0.06700
C2832       C  0.54384039  0.15142968  0.69701192    -0.27600
H2833       H  0.52847400  0.21301913  0.67672353     0.11400
H2834       H  0.55399106  0.22869369  0.64624372     0.12500
H2835       H  0.57569350  0.13761441  0.68074566     0.11600
H2836       H  0.60147648  0.15349036  0.65273146     0.10800
H2837       H  0.61498638  0.18069548  0.62511233     0.16200
H2838       H  0.58448317  0.22836466  0.61787522     0.12100
H2839       H  0.51455618  0.18545262  0.70198951     0.15000
H2840       H  0.54483159  0.13740762  0.70318023     0.14800
C2841       C  0.61410679  0.35285022  0.60980132    -0.18100
C2842       C  0.62346570  0.33813641  0.59497408    -0.20300
C2843       C  0.61506726  0.32175189  0.59077705     0.20400
C2844       C  0.59708903  0.32012874  0.60177292    -0.03200
C2845       C  0.58767307  0.33495622  0.61703407    -0.06300
C2846       C  0.59621773  0.35140839  0.62088033     0.20700
C2847       C  0.56978229  0.33327106  0.62886956     0.18800
C2848       C  0.56143323  0.31683544  0.62504253    -0.17700
C2849       C  0.57072113  0.30217803  0.60949972    -0.20000
C2850       C  0.58854398  0.30368201  0.59779933     0.20300
C2851       C  0.59799768  0.28901454  0.58253877    -0.33000
C2852       C  0.61596013  0.29051496  0.57170301     0.01000
C2853       C  0.62437356  0.30696171  0.57597617    -0.24300
C2854       C  0.58683961  0.36604351  0.63660177    -0.28900
C2855       C  0.56910287  0.36440471  0.64941276     0.06700
C2856       C  0.56064265  0.34796837  0.64506268    -0.27600
H2857       H  0.62089391  0.36535269  0.61282605     0.11400
H2858       H  0.63728534  0.33957404  0.58677608     0.12500
H2859       H  0.54771200  0.31530920  0.63414081     0.11600
H2860       H  0.56397924  0.28963905  0.60682124     0.10800
H2861       H  0.59142448  0.27638017  0.57976488     0.16200
H2862       H  0.63821580  0.30828893  0.56782050     0.12100
H2863       H  0.59356666  0.37854746  0.64052360     0.15000
H2864       H  0.54700238  0.34652184  0.65506945     0.14800
C2865       C  0.82222321  0.27668871  0.25908430    -0.18100
C2866       C  0.82317073  0.28172466  0.21479302    -0.20300
C2867       C  0.83474981  0.27311241  0.18586912     0.20400
C2868       C  0.84514236  0.25897225  0.20129932    -0.03200
C2869       C  0.84399037  0.25374669  0.24565295    -0.06300
C2870       C  0.83269099  0.26285735  0.27484922     0.20700
C2871       C  0.85459744  0.23981486  0.26111562     0.18800
C2872       C  0.86612216  0.23111811  0.23220744    -0.17700
C2873       C  0.86745885  0.23647571  0.18830594    -0.20000
C2874       C  0.85719478  0.25048874  0.17281859     0.20300
C2875       C  0.85929854  0.25668231  0.12986898    -0.33000
C2876       C  0.84938785  0.27102261  0.11511542     0.01000
C2877       C  0.83673206  0.27887412  0.14231557    -0.24300
C2878       C  0.83247918  0.25831118  0.31955332    -0.28900
C2879       C  0.84323865  0.24465870  0.33506003     0.06700
C2880       C  0.85395778  0.23521008  0.30560350    -0.27600
H2881       H  0.81348091  0.28376816  0.28115111     0.11400
H2882       H  0.81516722  0.29261156  0.20340810     0.12500
H2883       H  0.87435732  0.22043435  0.24378606     0.11600
H2884       H  0.87672786  0.22986532  0.16666752     0.10800
H2885       H  0.86902136  0.25073267  0.10819148     0.16200
H2886       H  0.82926862  0.29007006  0.13039056     0.12100
H2887       H  0.82422454  0.26559239  0.34241681     0.15000
H2888       H  0.86249116  0.22483634  0.31770143     0.14800
C2889       C  0.84252671  0.30296524  0.68174480    -0.18100
C2890       C  0.84158306  0.30830101  0.72593646    -0.20300
C2891       C  0.84760022  0.29718291  0.75968994     0.20400
C2892       C  0.85455255  0.28047249  0.74876842    -0.03200
C2893       C  0.85560478  0.27515189  0.70432898    -0.06300
C2894       C  0.84962059  0.28648841  0.67060248     0.20700
C2895       C  0.86284305  0.25856615  0.69364514     0.18800
C2896       C  0.86858699  0.24727934  0.72727445    -0.17700
C2897       C  0.86747640  0.25252238  0.77132539    -0.20000
C2898       C  0.86056170  0.26908734  0.78222989     0.20300
C2899       C  0.85946264  0.27437892  0.82616271    -0.33000
C2900       C  0.85234168  0.29087329  0.83752278     0.01000
C2901       C  0.84666737  0.30236979  0.80416286    -0.24300
C2902       C  0.85122453  0.28128128  0.62635054    -0.28900
C2903       C  0.85913728  0.26512071  0.61569911     0.06700
C2904       C  0.86457668  0.25369319  0.64944470    -0.27600
H2905       H  0.83786889  0.31180703  0.65622459     0.11400
H2906       H  0.83615682  0.32112548  0.73371507     0.12500
H2907       H  0.87408308  0.23447603  0.71947965     0.11600
H2908       H  0.87207324  0.24365359  0.79685426     0.10800
H2909       H  0.86419141  0.26555022  0.85167309     0.16200
H2910       H  0.84122998  0.31510981  0.81282973     0.12100
H2911       H  0.84691646  0.29003112  0.60021553     0.15000
H2912       H  0.87032101  0.24102888  0.64122360     0.14800
C2913       C  0.74331309  0.20184022  0.48317857    -0.18100
C2914       C  0.76140351  0.20173305  0.47407931    -0.20300
C2915       C  0.77286376  0.21302033  0.49697169     0.20400
C2916       C  0.76608997  0.22410303  0.53041790    -0.03200
C2917       C  0.74787506  0.22429408  0.53938713    -0.06300
C2918       C  0.73638069  0.21328861  0.51520956     0.20700
C2919       C  0.74110172  0.23604226  0.57131469     0.18800
C2920       C  0.75258014  0.24680536  0.59553417    -0.17700
C2921       C  0.77062317  0.24653912  0.58683400    -0.20000
C2922       C  0.77740098  0.23556347  0.55365587     0.20300
C2923       C  0.79516736  0.23647931  0.54199836    -0.33000
C2924       C  0.80184598  0.22622425  0.50716423     0.01000
C2925       C  0.79081015  0.21403241  0.48578165    -0.24300
C2926       C  0.71813405  0.21444529  0.52237049    -0.28900
C2927       C  0.71139635  0.22684671  0.55236384     0.06700
C2928       C  0.72291320  0.23731334  0.57731396    -0.27600
H2929       H  0.73469480  0.19328131  0.46441528     0.11400
H2930       H  0.76637340  0.19309862  0.44842188     0.12500
H2931       H  0.74755407  0.25575185  0.62044400     0.11600
H2932       H  0.77920630  0.25529410  0.60514281     0.10800
H2933       H  0.80371514  0.24568635  0.55904510     0.16200
H2934       H  0.79594463  0.20608309  0.45893431     0.12100
H2935       H  0.70916611  0.20640025  0.50316120     0.15000
H2936       H  0.71763531  0.24671527  0.60085978     0.14800
C2937       C  0.87763267  0.18532955  0.69178036    -0.18100
C2938       C  0.88678418  0.17560701  0.72340472    -0.20300
C2939       C  0.89792061  0.16181579  0.71040424     0.20400
C2940       C  0.89902688  0.15696062  0.66545774    -0.03200
C2941       C  0.88970549  0.16668908  0.63359785    -0.06300
C2942       C  0.87944268  0.18130520  0.64679968     0.20700
C2943       C  0.89174509  0.16264563  0.58833058     0.18800
C2944       C  0.90233334  0.14839025  0.57552941    -0.17700
C2945       C  0.91168243  0.13880363  0.60715320    -0.20000
C2946       C  0.91050117  0.14330302  0.65202246     0.20300
C2947       C  0.92154674  0.13534949  0.68325646    -0.33000
C2948       C  0.92124753  0.14109560  0.72723436     0.01000
C2949       C  0.90900478  0.15373756  0.74104697    -0.24300
C2950       C  0.87226748  0.19239270  0.61467803    -0.28900
C2951       C  0.87517588  0.18891152  0.56987350     0.06700
C2952       C  0.88423088  0.17373165  0.55665599    -0.27600
H2953       H  0.86971539  0.19642722  0.70234795     0.11400
H2954       H  0.88576321  0.17937921  0.75785665     0.12500
H2955       H  0.90396457  0.14512001  0.54090202     0.11600
H2956       H  0.92036116  0.12832725  0.59636094     0.10800
H2957       H  0.93129407  0.12577018  0.67284591     0.16200
H2958       H  0.90908740  0.15821562  0.77511147     0.12100
H2959       H  0.86543234  0.20432401  0.62438579     0.15000
H2960       H  0.88663190  0.17138566  0.52179208     0.14800
C2961       C  0.97181429  0.20173255  0.37249601    -0.18100
C2962       C  0.95756834  0.21121097  0.38948619    -0.20300
C2963       C  0.94046688  0.20426327  0.38733792     0.20400
C2964       C  0.93761072  0.18773450  0.36728759    -0.03200
C2965       C  0.95201386  0.17808181  0.35056205    -0.06300
C2966       C  0.96919544  0.18509263  0.35342658     0.20700
C2967       C  0.94927562  0.16122941  0.33209047     0.18800
C2968       C  0.93211110  0.15446680  0.32910254    -0.17700
C2969       C  0.91780679  0.16410771  0.34535200    -0.20000
C2970       C  0.92045180  0.18063509  0.36505665     0.20300
C2971       C  0.90633236  0.18991410  0.38381203    -0.33000
C2972       C  0.90919261  0.20610163  0.40532318     0.01000
C2973       C  0.92626575  0.21333687  0.40605351    -0.24300
C2974       C  0.98352459  0.17513957  0.33838625    -0.28900
C2975       C  0.98098473  0.15804720  0.32168449     0.06700
C2976       C  0.96379532  0.15127585  0.31802601    -0.27600
H2977       H  0.98492518  0.20727989  0.37498067     0.11400
H2978       H  0.95995910  0.22389424  0.40480379     0.12500
H2979       H  0.92977160  0.14158959  0.31477254     0.11600
H2980       H  0.90471749  0.15849150  0.34326848     0.10800
H2981       H  0.89325041  0.18420659  0.38306127     0.16200
H2982       H  0.92865533  0.22581641  0.42242711     0.12100
H2983       H  0.99673930  0.18042118  0.34136339     0.15000
H2984       H  0.96174407  0.13817373  0.30468127     0.14800
C2985       C  0.89652019  0.35420437  0.41442075    -0.18100
C2986       C  0.88701708  0.33933599  0.42771998    -0.20300
C2987       C  0.89480480  0.32258850  0.42657403     0.20400
C2988       C  0.91227493  0.32074918  0.41130985    -0.03200
C2989       C  0.92177914  0.33572985  0.39722869    -0.06300
C2990       C  0.91392255  0.35256041  0.39933802     0.20700
C2991       C  0.93913192  0.33386849  0.38114827     0.18800
C2992       C  0.94684615  0.31708597  0.37950836    -0.17700
C2993       C  0.93754802  0.30228520  0.39428978    -0.20000
C2994       C  0.92029112  0.30397673  0.41044600     0.20300
C2995       C  0.91095016  0.28925061  0.42607594    -0.33000
C2996       C  0.89354298  0.29103030  0.44144902     0.01000
C2997       C  0.88549410  0.30769494  0.44092098    -0.24300
C2998       C  0.92355186  0.36741818  0.38599897    -0.28900
C2999       C  0.94075449  0.36562311  0.36940675     0.06700
C3000       C  0.94842336  0.34880240  0.36682935    -0.27600
H3001       H  0.89025008  0.36700678  0.41593284     0.11400
H3002       H  0.87360728  0.34095856  0.43932051     0.12500
H3003       H  0.96013585  0.31542616  0.36713610     0.11600
H3004       H  0.94387107  0.28950463  0.39312721     0.10800
H3005       H  0.91714509  0.27638867  0.42596575     0.16200
H3006       H  0.87210299  0.30914354  0.45289456     0.12100
H3007       H  0.91745353  0.38032461  0.38709523     0.15000
H3008       H  0.96164439  0.34737216  0.35374078     0.14800
loop_ 
_geom_bond_atom_site_label_1 
_geom_bond_atom_site_label_2 
_geom_bond_distance 
_geom_bond_site_symmetry_2 
_ccdc_geom_bond_type 
Fe1          O17   2.059       .  S
Fe1           O7   2.063       .  S
Fe1          O14   2.064       .  S
Fe1           O6   2.040       .  S
Fe1          O12   1.971       .  S
Fe2           O5   2.042       .  S
Fe2           O9   2.071       .  S
Fe2          O13   2.044       .  S
Fe2          O18   2.063       .  S
Fe2          O12   1.959       .  S
Fe3          O21   2.078       .  S
Fe3           O8   2.047       .  S
Fe3          O15   2.034       .  S
Fe3           O4   2.075       .  S
Fe3          O12   1.978       .  S
O4           C11   1.267       .  A
O5           C19   1.265       .  A
O6           C11   1.263       .  A
O7           C10   1.272       .  A
O8           C20   1.265       .  A
O9           C22   1.267       .  A
C10          O15   1.267       .  A
C10        C2879   1.461       .  S
C11        C2924   1.474       .  S
O13          C16   1.267       .  A
O14          C16   1.269       .  A
C16        C2903   1.466       .  S
O17          C22   1.266       .  A
O18          C20   1.269       .  A
C19          O21   1.271       .  A
C19        C2972   1.480       .  S
C20        C2951   1.453       .  S
C22        C2996   1.480       .  S
Fe23         O39   2.062       .  S
Fe23         O29   2.023       .  S
Fe23         O36   2.042       .  S
Fe23         O28   2.051       .  S
Fe23         O34   1.970       .  S
Fe24         O27   2.064       .  S
Fe24         O31   2.058       .  S
Fe24         O35   2.070       .  S
Fe24         O40   2.045       .  S
Fe24         O34   1.956       .  S
Fe25         O43   2.059       .  S
Fe25         O30   2.082       .  S
Fe25         O37   2.091       .  S
Fe25         O26   2.062       .  S
Fe25         O34   1.976       .  S
O26          C33   1.263       .  A
O27          C41   1.267       .  A
O28          C33   1.263       .  A
O29          C32   1.267       .  A
O30          C42   1.272       .  A
O31          C44   1.265       .  A
C32          O37   1.278       .  A
C32        C2780   1.471       .  S
C33        C2927   1.467       .  S
O35          C38   1.272       .  A
O36          C38   1.267       .  A
C38        C2759   1.460       .  S
O39          C44   1.265       .  A
O40          C42   1.268       .  A
C41          O43   1.267       .  A
C41        C2828   1.474       .  S
C42        C2804   1.466       .  S
C44        C2852   1.481       .  S
Fe45         O61   2.037   1_556  S
Fe45         O51   2.058       .  S
Fe45         O58   2.074       .  S
Fe45         O50   2.018       .  S
Fe45         O56   1.955       .  S
Fe46         O49   2.072       .  S
Fe46         O53   2.066       .  S
Fe46         O57   2.067   1_554  S
Fe46         O62   2.061   1_554  S
Fe46         O56   1.951   1_554  S
Fe47         O65   2.085   1_556  S
Fe47         O52   2.065       .  S
Fe47         O59   2.094       .  S
Fe47         O48   2.097       .  S
Fe47         O56   1.961       .  S
O48          C55   1.277       .  A
O49          C63   1.273       .  A
O50          C55   1.266       .  A
O51          C54   1.266       .  A
O52          C64   1.271       .  A
O53          C66   1.271       .  A
C54          O59   1.271       .  A
C54        C2660   1.487       .  S
C55        C2900   1.471       .  S
O57          C60   1.268       .  A
O58          C60   1.268       .  A
C60        C2687   1.488       .  S
O61          C66   1.265       .  A
O62          C64   1.268       .  A
C63          O65   1.274       .  A
C63        C2708   1.475       .  S
C64        C2732   1.477       .  S
C66        C2876   1.447       .  S
Fe67         O83   2.058   1_554  S
Fe67         O73   2.053       .  S
Fe67         O80   2.066       .  S
Fe67         O72   2.052       .  S
Fe67         O78   1.960       .  S
Fe68         O71   2.074       .  S
Fe68         O75   2.055   1_554  S
Fe68         O79   2.074       .  S
Fe68         O84   2.051       .  S
Fe68         O78   1.952       .  S
Fe69         O87   2.069       .  S
Fe69         O74   2.106       .  S
Fe69         O81   2.103       .  S
Fe69         O70   2.059       .  S
Fe69         O78   1.971       .  S
O70          C77   1.272       .  A
O71          C85   1.271       .  A
O72          C77   1.270       .  A
O73          C76   1.266       .  A
O74          C86   1.277       .  A
O75          C88   1.271       .  A
C76          O81   1.273       .  A
C76        C2663   1.494       .  S
C77        C2756   1.461       .  S
O79          C82   1.269       .  A
O80          C82   1.267       .  A
C82        C2588   1.489       .  S
O83          C88   1.270       .  A
O84          C86   1.267       .  A
C85          O87   1.270       .  A
C85        C2615   1.467   1_554  S
C86        C2639   1.490       .  S
C88        C2783   1.465       .  S
Fe89        O105   2.058       .  S
Fe89         O95   2.047       .  S
Fe89        O102   2.061       .  S
Fe89         O94   2.056       .  S
Fe89        O100   1.973       .  S
Fe90         O93   2.060       .  S
Fe90         O97   2.041       .  S
Fe90        O101   2.063       .  S
Fe90        O106   2.045       .  S
Fe90        O100   1.963       .  S
Fe91        O109   2.076       .  S
Fe91         O96   2.084       .  S
Fe91        O103   2.091       .  S
Fe91         O92   2.074       .  S
Fe91        O100   1.986       .  S
O92          C99   1.275       .  A
O93         C107   1.270       .  A
O94          C99   1.271       .  A
O95          C98   1.265       .  A
O96         C108   1.271       .  A
O97         C110   1.265       .  A
C98         O103   1.270       .  A
C98        C2564   1.485       .  S
C99        C2519   1.480       .  S
O101        C104   1.268       .  A
O102        C104   1.267       .  A
C104       C2492   1.475       .  S
O105        C110   1.267       .  A
O106        C108   1.264       .  A
C107        O109   1.272       .  A
C107       C2612   1.468       .  S
C108       C2855   1.482       .  S
C110       C2540   1.463       .  S
Fe111       O127   2.049       .  S
Fe111       O117   2.069       .  S
Fe111       O124   2.087       .  S
Fe111       O116   2.032       .  S
Fe111       O122   1.941       .  S
Fe112       O115   2.056       .  S
Fe112       O119   2.075       .  S
Fe112       O123   2.067       .  S
Fe112       O128   2.072       .  S
Fe112       O122   1.943       .  S
Fe113       O131   2.092       .  S
Fe113       O118   2.065       .  S
Fe113       O125   2.084       .  S
Fe113       O114   2.094       .  S
Fe113       O122   1.951       .  S
O114        C121   1.276       .  A
O115        C129   1.270       .  A
O116        C121   1.269       .  A
O117        C120   1.269       .  A
O118        C130   1.269       .  A
O119        C132   1.271       .  A
C120        O125   1.271       .  A
C120       C2567   1.482       .  S
C121       C2444   1.478       .  S
O123        C126   1.270       .  A
O124        C126   1.273       .  A
C126       C2423   1.488       .  S
O127        C132   1.266       .  A
O128        C130   1.269       .  A
C129        O131   1.276       .  A
C129       C2396   1.474       .  S
C130       C2375   1.464       .  S
C132       C2471   1.456       .  S
Fe133       O149   2.047       .  S
Fe133       O139   2.038       .  S
Fe133       O146   2.054       .  S
Fe133       O138   2.036       .  S
Fe133       O144   1.964       .  S
Fe134       O137   2.056       .  S
Fe134       O141   2.091       .  S
Fe134       O145   2.065       .  S
Fe134       O150   2.068       .  S
Fe134       O144   1.960       .  S
Fe135       O153   2.100       .  S
Fe135       O140   2.077       .  S
Fe135       O147   2.075       .  S
Fe135       O136   2.110       .  S
Fe135       O144   1.978       .  S
O136        C143   1.274       .  A
O137        C151   1.270       .  A
O138        C143   1.263       .  A
O139        C142   1.268       .  A
O140        C152   1.271       .  A
O141        C154   1.268       .  A
C142        O147   1.273       .  A
C142       C2543   1.467       .  S
C143       C2348   1.487       .  S
O145        C148   1.273       .  A
O146        C148   1.269       .  A
C148       C2516   1.460       .  S
O149        C154   1.262       .  A
O150        C152   1.269       .  A
C151        O153   1.277       .  A
C151       C2303   1.483       .  S
C152       C2327   1.471       .  S
C154       C2636   1.488       .  S
Fe155       O171   2.061       .  S
Fe155       O161   2.073       .  S
Fe155       O168   2.087       .  S
Fe155       O160   2.055       .  S
Fe155       O166   1.947       .  S
Fe156       O159   2.049       .  S
Fe156       O163   2.083       .  S
Fe156       O167   2.033       .  S
Fe156       O172   2.077       .  S
Fe156       O166   1.946       .  S
Fe157       O175   2.093       .  S
Fe157       O162   2.058       .  S
Fe157       O169   2.049       .  S
Fe157       O158   2.093       .  S
Fe157       O166   1.949       .  S
O158        C165   1.273       .  A
O159        C173   1.269       .  A
O160        C165   1.268       .  A
O161        C164   1.273       .  A
O162        C174   1.266       .  A
O163        C176   1.270       .  A
C164        O169   1.270       .  A
C164       C2468   1.475       .  S
C165       C2351   1.491       .  S
O167        C170   1.268       .  A
O168        C170   1.274       .  A
C170       C2447   1.464       .  S
O171        C176   1.265       .  A
O172        C174   1.270       .  A
C173        O175   1.277       .  A
C173       C2252   1.479       .  S
C174       C2279   1.461       .  S
C176       C2228   1.477       .  S
Fe177       O193   2.049       .  S
Fe177       O183   2.052       .  S
Fe177       O190   2.060   1_556  S
Fe177       O182   2.040   1_556  S
Fe177       O188   1.954       .  S
Fe178       O181   2.050       .  S
Fe178       O185   2.077       .  S
Fe178       O189   2.050   1_556  S
Fe178       O194   2.064   1_556  S
Fe178       O188   1.946       .  S
Fe179       O197   2.097       .  S
Fe179       O184   2.065   1_556  S
Fe179       O191   2.053       .  S
Fe179       O180   2.101       .  S
Fe179       O188   1.966       .  S
O180        C187   1.275       .  A
O181        C195   1.268       .  A
O182        C187   1.266   1_554  A
O183        C186   1.267       .  A
O184        C196   1.270       .  A
O185        C198   1.271       .  A
C186        O191   1.269       .  A
C186       C2156   1.458       .  S
C187       C2204   1.482   1_556  S
O189        C192   1.268       .  A
O190        C192   1.266       .  A
C192       C2180   1.469       .  S
O193        C198   1.267       .  A
O194        C196   1.270       .  A
C195        O197   1.276       .  A
C195       C2420   1.487       .  S
C196       C2276   1.460       .  S
C198       C2132   1.481       .  S
Fe199       O215   2.097       .  S
Fe199       O205   2.020       .  S
Fe199       O212   2.044       .  S
Fe199       O204   2.073       .  S
Fe199       O210   1.953       .  S
Fe200       O203   2.073       .  S
Fe200       O207   2.053       .  S
Fe200       O211   2.084   1_554  S
Fe200       O216   2.055   1_554  S
Fe200       O210   1.940       .  S
Fe201       O219   2.048       .  S
Fe201       O206   2.102       .  S
Fe201       O213   2.113       .  S
Fe201       O202   2.069       .  S
Fe201       O210   1.957       .  S
O202        C209   1.267       .  A
O203        C217   1.271       .  A
O204        C209   1.269       .  A
O205        C208   1.267       .  A
O206        C218   1.277   1_554  A
O207        C220   1.266       .  A
C208        O213   1.280       .  A
C208       C2108   1.476       .  S
C209       C2207   1.477       .  S
O211        C214   1.274       .  A
O212        C214   1.266   1_554  A
C214       C2084   1.457       .  S
O215        C220   1.272       .  A
O216        C218   1.271       .  A
C217        O219   1.267       .  A
C217       C2063   1.470       .  S
C218       C2036   1.483       .  S
C220       C2015   1.488       .  S
Fe221       O237   2.045       .  S
Fe221       O227   2.038       .  S
Fe221       O234   2.054       .  S
Fe221       O226   2.026       .  S
Fe221       O232   1.968       .  S
Fe222       O225   2.044       .  S
Fe222       O229   2.064       .  S
Fe222       O233   2.062       .  S
Fe222       O238   2.052       .  S
Fe222       O232   1.960       .  S
Fe223       O241   2.085       .  S
Fe223       O228   2.066       .  S
Fe223       O235   2.075       .  S
Fe223       O224   2.091       .  S
Fe223       O232   1.982       .  S
O224        C231   1.276       .  A
O225        C239   1.267       .  A
O226        C231   1.267       .  A
O227        C230   1.262       .  A
O228        C240   1.269       .  A
O229        C242   1.271       .  A
C230        O235   1.267       .  A
C230       C1988   1.473       .  S
C231       C2183   1.474       .  S
O233        C236   1.265       .  A
O234        C236   1.263       .  A
C236       C2255   1.482       .  S
O237        C242   1.268       .  A
O238        C240   1.267       .  A
C239        O241   1.272       .  A
C239       C1943   1.469       .  S
C240       C1964   1.476       .  S
C242       C2159   1.461       .  S
Fe243       O259   2.083       .  S
Fe243       O249   2.027       .  S
Fe243       O256   2.044       .  S
Fe243       O248   2.078       .  S
Fe243       O254   1.965       .  S
Fe244       O247   2.066       .  S
Fe244       O251   2.046       .  S
Fe244       O255   2.065       .  S
Fe244       O260   2.044       .  S
Fe244       O254   1.952       .  S
Fe245       O263   2.062       .  S
Fe245       O250   2.109       .  S
Fe245       O257   2.095       .  S
Fe245       O246   2.044       .  S
Fe245       O254   1.970       .  S
O246        C253   1.269       .  A
O247        C261   1.268       .  A
O248        C253   1.274       .  A
O249        C252   1.262       .  A
O250        C262   1.278       .  A
O251        C264   1.271       .  A
C252        O257   1.273       .  A
C252       C1991   1.481       .  S
C253       C2087   1.474       .  S
O255        C258   1.266       .  A
O256        C258   1.263       .  A
C258       C1916   1.468       .  S
O259        C264   1.274       .  A
O260        C262   1.268       .  A
C261        O263   1.266       .  A
C261       C1868   1.462       .  S
C262       C1892   1.489       .  S
C264       C2111   1.479       .  S
Fe265       O281   2.075       .  S
Fe265       O271   2.032       .  S
Fe265       O278   2.048       .  S
Fe265       O270   2.043       .  S
Fe265       O276   1.956       .  S
Fe266       O269   2.047       .  S
Fe266       O273   2.054       .  S
Fe266       O277   2.064       .  S
Fe266       O282   2.045       .  S
Fe266       O276   1.951       .  S
Fe267       O285   2.073       .  S
Fe267       O272   2.092       .  S
Fe267       O279   2.098       .  S
Fe267       O268   2.081       .  S
Fe267       O276   1.973       .  S
O268        C275   1.267       .  A
O269        C283   1.263       .  A
O270        C275   1.264       .  A
O271        C274   1.270       .  A
O272        C284   1.276       .  A
O273        C286   1.265       .  A
C274        O279   1.280       .  A
C274       C1748   1.478       .  S
C275       C1796   1.479       .  S
O277        C280   1.269       .  A
O278        C280   1.267       .  A
C280       C1772   1.471       .  S
O281        C286   1.269       .  A
O282        C284   1.270       .  A
C283        O285   1.269       .  A
C283       C1820   1.475       .  S
C284       C1847   1.471       .  S
C286       C2735   1.478   1_455  S
Fe287       O303   2.045       .  S
Fe287       O293   2.057       .  S
Fe287       O300   2.068       .  S
Fe287       O292   2.039       .  S
Fe287       O298   1.960       .  S
Fe288       O291   2.044       .  S
Fe288       O295   2.084       .  S
Fe288       O299   2.051       .  S
Fe288       O304   2.068       .  S
Fe288       O298   1.957       .  S
Fe289       O307   2.086       .  S
Fe289       O294   2.073       .  S
Fe289       O301   2.063       .  S
Fe289       O290   2.094       .  S
Fe289       O298   1.976       .  S
O290        C297   1.272       .  A
O291        C305   1.269       .  A
O292        C297   1.266       .  A
O293        C296   1.269       .  A
O294        C306   1.269       .  A
O295        C308   1.269       .  A
C296        O301   1.270       .  A
C296       C1703   1.477       .  S
C297       C1799   1.486       .  S
O299        C302   1.270       .  A
O300        C302   1.271       .  A
C302       C1724   1.461       .  S
O303        C308   1.263       .  A
O304        C306   1.268       .  A
C305        O307   1.276       .  A
C305       C1919   1.478       .  S
C306       C2039   1.470       .  S
C308       C1676   1.487   1_455  S
Fe309       O325   2.041       .  S
Fe309       O315   2.064       .  S
Fe309       O322   2.071   1_655  S
Fe309       O314   2.022       .  S
Fe309       O320   1.951       .  S
Fe310       O313   2.056       .  S
Fe310       O317   2.080       .  S
Fe310       O321   2.065       .  S
Fe310       O326   2.070       .  S
Fe310       O320   1.936       .  S
Fe311       O329   2.091       .  S
Fe311       O316   2.065       .  S
Fe311       O323   2.077       .  S
Fe311       O312   2.106       .  S
Fe311       O320   1.956       .  S
O312        C319   1.279       .  A
O313        C327   1.270       .  A
O314        C319   1.266       .  A
O315        C318   1.267       .  A
O316        C328   1.271       .  A
O317        C330   1.274       .  A
C318        O323   1.268       .  A
C318       C1631   1.479       .  S
C319       C1775   1.461       .  S
O321        C324   1.267   1_655  A
O322        C324   1.267       .  A
C324       C1652   1.484       .  S
O325        C330   1.267       .  A
O326        C328   1.271       .  A
C327        O329   1.275       .  A
C327       C2711   1.477       .  S
C328       C2999   1.476       .  S
C330       C1751   1.453   1_655  S
Fe331       O347   2.065   1_655  S
Fe331       O337   2.048       .  S
Fe331       O344   2.053   1_655  S
Fe331       O336   2.062       .  S
Fe331       O342   1.962       .  S
Fe332       O335   2.058       .  S
Fe332       O339   2.056       .  S
Fe332       O343   2.067   1_655  S
Fe332       O348   2.050       .  S
Fe332       O342   1.954       .  S
Fe333       O351   2.059       .  S
Fe333       O338   2.090       .  S
Fe333       O345   2.085       .  S
Fe333       O334   2.052       .  S
Fe333       O342   1.972       .  S
O334        C341   1.270       .  A
O335        C349   1.269       .  A
O336        C341   1.272       .  A
O337        C340   1.265       .  A
O338        C350   1.273       .  A
O339        C352   1.269       .  A
C340        O345   1.270       .  A
C340       C1628   1.482       .  S
C341       C1727   1.472       .  S
O343        C346   1.268       .  A
O344        C346   1.266       .  A
C346       C2060   1.473       .  S
O347        C352   1.269   1_455  A
O348        C350   1.267       .  A
C349        O351   1.268       .  A
C349       C1604   1.454       .  S
C350       C1580   1.486       .  S
C352       C1700   1.465   1_655  S
Fe353       O369   2.058       .  S
Fe353       O359   2.063       .  S
Fe353       O366   2.069       .  S
Fe353       O358   2.044       .  S
Fe353       O364   1.956       .  S
Fe354       O357   2.049       .  S
Fe354       O361   2.071       .  S
Fe354       O365   2.053       .  S
Fe354       O370   2.068       .  S
Fe354       O364   1.949       .  S
Fe355       O373   2.102       .  S
Fe355       O360   2.062       .  S
Fe355       O367   2.054       .  S
Fe355       O356   2.099       .  S
Fe355       O364   1.972       .  S
O356        C363   1.272       .  A
O357        C371   1.267       .  A
O358        C363   1.265       .  A
O359        C362   1.273       .  A
O360        C372   1.269       .  A
O361        C374   1.268       .  A
C362        O367   1.272       .  A
C362       C1511   1.470       .  S
C363       C1559   1.490       .  S
O365        C368   1.271       .  A
O366        C368   1.271       .  A
C368       C1532   1.472       .  S
O369        C374   1.266       .  A
O370        C372   1.271       .  A
C371        O373   1.275       .  A
C371       C2591   1.485       .  S
C372       C2807   1.460       .  S
C374       C1484   1.483       .  S
Fe375       O391   2.084       .  S
Fe375       O381   2.023       .  S
Fe375       O388   2.048       .  S
Fe375       O380   2.060       .  S
Fe375       O386   1.949       .  S
Fe376       O379   2.075       .  S
Fe376       O383   2.056       .  S
Fe376       O387   2.086       .  S
Fe376       O392   2.046       .  S
Fe376       O386   1.945       .  S
Fe377       O395   2.074       .  S
Fe377       O382   2.087       .  S
Fe377       O389   2.097       .  S
Fe377       O378   2.080       .  S
Fe377       O386   1.967       .  S
O378        C385   1.267       .  A
O379        C393   1.270       .  A
O380        C385   1.266       .  A
O381        C384   1.269       .  A
O382        C394   1.276       .  A
O383        C396   1.267       .  A
C384        O389   1.278       .  A
C384       C1463   1.467       .  S
C385       C1556   1.482       .  S
O387        C390   1.273       .  A
O388        C390   1.268       .  A
C390       C1436   1.469       .  S
O391        C396   1.271       .  A
O392        C394   1.271       .  A
C393        O395   1.269       .  A
C393       C1391   1.492       .  S
C394       C1412   1.468       .  S
C396       C1967   1.482       .  S
Fe397       O413   2.046       .  S
Fe397       O403   2.056       .  S
Fe397       O410   2.061       .  S
Fe397       O402   2.028       .  S
Fe397       O408   1.973       .  S
Fe398       O401   2.052       .  S
Fe398       O405   2.065       .  S
Fe398       O409   2.075       .  S
Fe398       O414   2.066       .  S
Fe398       O408   1.965       .  S
Fe399       O417   2.074       .  S
Fe399       O404   2.084       .  S
Fe399       O411   2.089       .  S
Fe399       O400   2.087       .  S
Fe399       O408   1.985       .  S
O400        C407   1.275       .  A
O401        C415   1.270       .  A
O402        C407   1.268       .  A
O403        C406   1.265       .  A
O404        C416   1.271       .  A
O405        C418   1.269       .  A
C406        O411   1.269       .  A
C406       C1367   1.486       .  S
C407       C1535   1.470       .  S
O409        C412   1.269       .  A
O410        C412   1.266       .  A
C412       C2831   1.487       .  S
O413        C418   1.266       .  A
O414        C416   1.269       .  A
C415        O417   1.272       .  A
C415       C1340   1.467       .  S
C416       C1319   1.495       .  S
C418       C1508   1.457       .  S
Fe419       O435   2.073       .  S
Fe419       O425   2.042       .  S
Fe419       O432   2.063       .  S
Fe419       O424   2.074       .  S
Fe419       O430   1.953       .  S
Fe420       O423   2.077       .  S
Fe420       O427   2.035       .  S
Fe420       O431   2.078       .  S
Fe420       O436   2.050       .  S
Fe420       O430   1.945       .  S
Fe421       O439   2.068       .  S
Fe421       O426   2.099       .  S
Fe421       O433   2.107       .  S
Fe421       O422   2.050       .  S
Fe421       O430   1.964       .  S
O422        C429   1.271       .  A
O423        C437   1.271       .  A
O424        C429   1.276       .  A
O425        C428   1.263       .  A
O426        C438   1.276       .  A
O427        C440   1.272       .  A
C428        O433   1.272       .  A
C428       C1364   1.494       .  S
C429       C1439   1.463       .  S
O431        C434   1.267       .  A
O432        C434   1.265       .  A
C434       C1292   1.491       .  S
O435        C440   1.275       .  A
O436        C438   1.268       .  A
C437        O439   1.269       .  A
C437       C1940   1.467       .  S
C438       C2135   1.474       .  S
C440       C1460   1.468       .  S
Fe441       O457   2.076       .  S
Fe441       O447   2.019       .  S
Fe441       O454   2.033   1_554  S
Fe441       O446   2.062       .  S
Fe441       O452   1.956       .  S
Fe442       O445   2.073       .  S
Fe442       O449   2.056       .  S
Fe442       O453   2.079   1_554  S
Fe442       O458   2.057   1_554  S
Fe442       O452   1.950       .  S
Fe443       O461   2.064       .  S
Fe443       O448   2.090       .  S
Fe443       O455   2.096       .  S
Fe443       O444   2.081       .  S
Fe443       O452   1.961       .  S
O444        C451   1.270       .  A
O445        C459   1.271       .  A
O446        C451   1.266       .  A
O447        C450   1.266       .  A
O448        C460   1.275   1_554  A
O449        C462   1.265       .  A
C450        O455   1.277       .  A
C450       C1172   1.469       .  S
C451       C1220   1.483       .  S
O453        C456   1.273       .  A
O454        C456   1.265       .  A
C456       C1196   1.448       .  S
O457        C462   1.267       .  A
O458        C460   1.269       .  A
C459        O461   1.270       .  A
C459       C1268   1.477       .  S
C460       C1247   1.474       .  S
C462       C1583   1.483       .  S
Fe463       O479   2.043       .  S
Fe463       O469   2.081       .  S
Fe463       O476   2.088   1_556  S
Fe463       O468   2.040   1_556  S
Fe463       O474   1.948       .  S
Fe464       O467   2.058       .  S
Fe464       O471   2.079       .  S
Fe464       O475   2.045   1_556  S
Fe464       O480   2.078   1_556  S
Fe464       O474   1.942       .  S
Fe465       O483   2.111       .  S
Fe465       O470   2.060   1_556  S
Fe465       O477   2.039       .  S
Fe465       O466   2.105       .  S
Fe465       O474   1.949       .  S
O466        C473   1.276       .  A
O467        C481   1.271       .  A
O468        C473   1.265   1_554  A
O469        C472   1.274       .  A
O470        C482   1.267       .  A
O471        C484   1.269       .  A
C472        O477   1.268       .  A
C472       C1148   1.477       .  S
C473       C1223   1.488   1_556  S
O475        C478   1.272       .  A
O476        C478   1.275       .  A
C478       C1127   1.476       .  S
O479        C484   1.263       .  A
O480        C482   1.270       .  A
C481        O483   1.280       .  A
C481       C1295   1.488       .  S
C482       C1415   1.465       .  S
C484       C2372   1.475       .  S
Fe485       O501   2.063       .  S
Fe485       O491   2.052       .  S
Fe485       O498   2.056       .  S
Fe485       O490   2.068       .  S
Fe485       O496   1.956       .  S
Fe486       O489   2.062       .  S
Fe486       O493   2.049       .  S
Fe486       O497   2.061       .  S
Fe486       O502   2.052       .  S
Fe486       O496   1.953       .  S
Fe487       O505   2.050       .  S
Fe487       O492   2.098       .  S
Fe487       O499   2.090       .  S
Fe487       O488   2.043       .  S
Fe487       O496   1.962       .  S
O488        C495   1.271       .  A
O489        C503   1.268       .  A
O490        C495   1.274       .  A
O491        C494   1.265       .  A
O492        C504   1.275       .  A
O493        C506   1.270       .  A
C494        O499   1.271       .  A
C494       C1079   1.489       .  S
C495       C1199   1.472       .  S
O497        C500   1.265       .  A
O498        C500   1.266       .  A
C500       C1100   1.472       .  S
O501        C506   1.271       .  A
O502        C504   1.267       .  A
C503        O505   1.265       .  A
C503       C1607   1.451       .  S
C504       C1679   1.479       .  S
C506       C1175   1.469       .  S
Fe507       O523   2.050       .  S
Fe507       O513   2.078       .  S
Fe507       O520   2.095       .  S
Fe507       O512   2.033       .  S
Fe507       O518   1.949       .  S
Fe508       O511   2.059       .  S
Fe508       O515   2.083       .  S
Fe508       O519   2.071       .  S
Fe508       O524   2.081       .  S
Fe508       O518   1.942       .  S
Fe509       O527   2.091       .  S
Fe509       O514   2.070       .  S
Fe509       O521   2.090       .  S
Fe509       O510   2.090       .  S
Fe509       O518   1.958       .  S
O510        C517   1.274       .  A
O511        C525   1.271       .  A
O512        C517   1.269       .  A
O513        C516   1.272       .  A
O514        C526   1.270       .  A
O515        C528   1.273       .  A
C516        O521   1.274       .  A
C516       C1076   1.491       .  S
C517       C1124   1.475       .  S
O519        C522   1.270       .  A
O520        C522   1.272       .  A
C522       C1388   1.487       .  S
O523        C528   1.268       .  A
O524        C526   1.272       .  A
C525        O527   1.275       .  A
C525       C2399   1.475       .  S
C526       C2231   1.477       .  S
C528       C1151   1.459       .  S
Fe529       O545   2.076       .  S
Fe529       O535   2.033       .  S
Fe529       O542   2.047       .  S
Fe529       O534   2.064       .  S
Fe529       O540   1.964       .  S
Fe530       O533   2.059       .  S
Fe530       O537   2.075       .  S
Fe530       O541   2.071       .  S
Fe530       O546   2.059       .  S
Fe530       O540   1.947       .  S
Fe531       O549   2.059       .  S
Fe531       O536   2.098       .  S
Fe531       O543   2.110       .  S
Fe531       O532   2.080       .  S
Fe531       O540   1.968       .  S
O532        C539   1.267       .  A
O533        C547   1.267       .  A
O534        C539   1.266       .  A
O535        C538   1.270       .  A
O536        C548   1.279       .  A
O537        C550   1.267       .  A
C538        O543   1.282       .  A
C538       C1004   1.481       .  S
C539       C1055   1.488       .  S
O541        C544   1.273       .  A
O542        C544   1.269       .  A
C544       C1031   1.458       .  S
O545        C550   1.266       .  A
O546        C548   1.272       .  A
C547        O549   1.266       .  A
C547       C2495   1.475       .  S
C548       C2324   1.479       .  S
C550       C1316   1.482       .  S
Fe551       O567   2.066       .  S
Fe551       O557   2.071       .  S
Fe551       O564   2.074       .  S
Fe551       O556   2.049       .  S
Fe551       O562   1.963       .  S
Fe552       O555   2.037       .  S
Fe552       O559   2.071       .  S
Fe552       O563   2.038       .  S
Fe552       O568   2.067       .  S
Fe552       O562   1.955       .  S
Fe553       O571   2.103       .  S
Fe553       O558   2.072       .  S
Fe553       O565   2.058       .  S
Fe553       O554   2.095       .  S
Fe553       O562   1.973       .  S
O554        C561   1.272       .  A
O555        C569   1.266       .  A
O556        C561   1.265       .  A
O557        C560   1.274       .  A
O558        C570   1.268       .  A
O559        C572   1.266       .  A
C560        O565   1.272       .  A
C560        C980   1.477       .  S
C561       C1052   1.492       .  S
O563        C566   1.270       .  A
O564        C566   1.274       .  A
C566        C956   1.469       .  S
O567        C572   1.266       .  A
O568        C570   1.269       .  A
C569        O571   1.277       .  A
C569       C1655   1.483       .  S
C570       C1844   1.469       .  S
C572        C935   1.486       .  S
Fe573       O589   2.078   1_554  S
Fe573       O579   2.062       .  S
Fe573       O586   2.070       .  S
Fe573       O578   2.064       .  S
Fe573       O584   1.953       .  S
Fe574       O577   2.073       .  S
Fe574       O581   2.057   1_554  S
Fe574       O585   2.074       .  S
Fe574       O590   2.046       .  S
Fe574       O584   1.948       .  S
Fe575       O593   2.062       .  S
Fe575       O580   2.107       .  S
Fe575       O587   2.109       .  S
Fe575       O576   2.051       .  S
Fe575       O584   1.967       .  S
O576        C583   1.270       .  A
O577        C591   1.272       .  A
O578        C583   1.273       .  A
O579        C582   1.269       .  A
O580        C592   1.276       .  A
O581        C594   1.271       .  A
C582        O587   1.275       .  A
C582        C908   1.497       .  S
C583       C1028   1.464       .  S
O585        C588   1.269       .  A
O586        C588   1.268       .  A
C588       C2300   1.490       .  S
O589        C594   1.273       .  A
O590        C592   1.265       .  A
C591        O593   1.270       .  A
C591       C1343   1.462   1_554  S
C592       C1487   1.486       .  S
C594       C1007   1.478       .  S
Fe595       O611   2.049   1_556  S
Fe595       O601   2.079       .  S
Fe595       O608   2.083       .  S
Fe595       O600   2.030       .  S
Fe595       O606   1.938       .  S
Fe596       O599   2.053       .  S
Fe596       O603   2.078       .  S
Fe596       O607   2.066   1_554  S
Fe596       O612   2.078   1_554  S
Fe596       O606   1.938   1_554  S
Fe597       O615   2.083   1_556  S
Fe597       O602   2.076       .  S
Fe597       O609   2.092       .  S
Fe597       O598   2.089       .  S
Fe597       O606   1.950       .  S
O598        C605   1.275       .  A
O599        C613   1.270       .  A
O600        C605   1.266       .  A
O601        C604   1.272       .  A
O602        C614   1.271       .  A
O603        C616   1.271       .  A
C604        O609   1.273       .  A
C604        C911   1.490       .  S
C605        C959   1.469       .  S
O607        C610   1.271       .  A
O608        C610   1.273       .  A
C610       C1823   1.486       .  S
O611        C616   1.266       .  A
O612        C614   1.270       .  A
C613        O615   1.274       .  A
C613        C860   1.469       .  S
C614        C884   1.473       .  S
C616        C983   1.457       .  S
Fe617       O633   2.063   1_655  S
Fe617       O623   2.061       .  S
Fe617       O630   2.078   1_655  S
Fe617       O622   2.049       .  S
Fe617       O628   1.943       .  S
Fe618       O621   2.046       .  S
Fe618       O625   2.081       .  S
Fe618       O629   2.038       .  S
Fe618       O634   2.069       .  S
Fe618       O628   1.941       .  S
Fe619       O637   2.111       .  S
Fe619       O624   2.057       .  S
Fe619       O631   2.055       .  S
Fe619       O620   2.107       .  S
Fe619       O628   1.953       .  S
O620        C627   1.277       .  A
O621        C635   1.269       .  A
O622        C627   1.268       .  A
O623        C626   1.271       .  A
O624        C636   1.266       .  A
O625        C638   1.270   1_655  A
C626        O631   1.270       .  A
C626        C788   1.471       .  S
C627        C836   1.492       .  S
O629        C632   1.268       .  A
O630        C632   1.271   1_455  A
C632        C812   1.469       .  S
O633        C638   1.268       .  A
O634        C636   1.270       .  A
C635        O637   1.280       .  A
C635       C2684   1.486       .  S
C636       C2948   1.456       .  S
C638        C887   1.483       .  S
Fe639       O655   2.073   1_655  S
Fe639       O645   2.010       .  S
Fe639       O652   2.026       .  S
Fe639       O644   2.065       .  S
Fe639       O650   1.952       .  S
Fe640       O643   2.061       .  S
Fe640       O647   2.067       .  S
Fe640       O651   2.070       .  S
Fe640       O656   2.059       .  S
Fe640       O650   1.941       .  S
Fe641       O659   2.058       .  S
Fe641       O646   2.088       .  S
Fe641       O653   2.092       .  S
Fe641       O642   2.083       .  S
Fe641       O650   1.958       .  S
O642        C649   1.271       .  A
O643        C657   1.269       .  A
O644        C649   1.268       .  A
O645        C648   1.266       .  A
O646        C658   1.274       .  A
O647        C660   1.266   1_655  A
C648        O653   1.277       .  A
C648        C767   1.466       .  S
C649        C839   1.486       .  S
O651        C654   1.274       .  A
O652        C654   1.266       .  A
C654        C740   1.443   1_655  S
O655        C660   1.267       .  A
O656        C658   1.270       .  A
C657        O659   1.270       .  A
C657       C1103   1.468       .  S
C658       C1244   1.474       .  S
C660       C1895   1.487       .  S
Fe661       O677   2.039       .  S
Fe661       O667   2.064       .  S
Fe661       O674   2.072   1_455  S
Fe661       O666   2.020       .  S
Fe661       O672   1.969       .  S
Fe662       O665   2.047       .  S
Fe662       O669   2.080       .  S
Fe662       O673   2.053       .  S
Fe662       O678   2.082       .  S
Fe662       O672   1.955       .  S
Fe663       O681   2.086       .  S
Fe663       O668   2.072       .  S
Fe663       O675   2.089       .  S
Fe663       O664   2.095       .  S
Fe663       O672   1.973       .  S
O664        C671   1.277       .  A
O665        C679   1.266       .  A
O666        C671   1.267       .  A
O667        C670   1.267       .  A
O668        C680   1.272       .  A
O669        C682   1.275       .  A
C670        O675   1.271       .  A
C670        C716   1.489       .  S
C671        C815   1.474       .  S
O673        C676   1.263   1_455  A
O674        C676   1.266       .  A
C676       C2975   1.478       .  S
O677        C682   1.266       .  A
O678        C680   1.272       .  A
C679        O681   1.273       .  A
C679        C863   1.469       .  S
C680        C932   1.486       .  S
C682        C791   1.456       .  S
Fe683       O699   2.041       .  S
Fe683       O689   2.051       .  S
Fe683       O696   2.064   1_455  S
Fe683       O688   2.031       .  S
Fe683       O694   1.978       .  S
Fe684       O687   2.057       .  S
Fe684       O691   2.044       .  S
Fe684       O695   2.064       .  S
Fe684       O700   2.050       .  S
Fe684       O694   1.972       .  S
Fe685       O703   2.070       .  S
Fe685       O690   2.096       .  S
Fe685       O697   2.097       .  S
Fe685       O686   2.064       .  S
Fe685       O694   1.991       .  S
O686        C693   1.271       .  A
O687        C701   1.269       .  A
O688        C693   1.267       .  A
O689        C692   1.266       .  A
O690        C702   1.274       .  A
O691        C704   1.266       .  A
C692        O697   1.273       .  A
C692        C719   1.492       .  S
C693        C743   1.467       .  S
O695        C698   1.267   1_455  A
O696        C698   1.268       .  A
C698       C1271   1.482       .  S
O699        C704   1.263       .  A
O700        C702   1.266       .  A
C701        O703   1.270       .  A
C701       C1871   1.464       .  S
C702       C2012   1.489       .  S
C704        C764   1.457       .  S
C705        C706   1.398       .  A
C705        C710   1.403   1_545  A
C705        H721   1.084   1_545  S
C706        C707   1.404       .  A
C706        H722   1.083       .  S
C707        C717   1.403       .  A
C707        C708   1.410       .  A
C708        C714   1.413       .  A
C708        C709   1.417       .  A
C709        C711   1.412   1_545  A
C709        C710   1.410   1_545  A
C710        C718   1.402       .  A
C711        C720   1.413       .  A
C711        C712   1.406   1_565  A
C712        C713   1.404       .  A
C712        H723   1.083       .  S
C713        C714   1.405       .  A
C713        H724   1.083       .  S
C714        C715   1.412       .  A
C715        C716   1.408       .  A
C715        H725   1.084       .  S
C716        C717   1.409       .  A
C717        H726   1.084       .  S
C718        C719   1.410       .  A
C718        H727   1.085       .  S
C719        C720   1.411       .  A
C720        H728   1.084       .  S
C729        C730   1.391   1_554  A
C729        C734   1.401   1_655  A
C729        H745   1.084       .  S
C730        C731   1.400       .  A
C730        H746   1.084       .  S
C731        C741   1.389       .  A
C731        C732   1.413   1_655  A
C732        C738   1.413       .  A
C732        C733   1.402   1_556  A
C733        C735   1.412       .  A
C733        C734   1.409       .  A
C734        C742   1.388       .  A
C735        C744   1.400       .  A
C735        C736   1.403   1_554  A
C736        C737   1.398       .  A
C736        H747   1.083       .  S
C737        C738   1.403       .  A
C737        H748   1.084       .  S
C738        C739   1.399       .  A
C739        C740   1.400       .  A
C739        H749   1.085       .  S
C740        C741   1.395   1_455  A
C741        H750   1.086       .  S
C742        C743   1.405       .  A
C742        H751   1.085   1_455  S
C743        C744   1.404       .  A
C744        H752   1.084       .  S
C753        C754   1.399       .  A
C753        C758   1.403       .  A
C753        H769   1.083       .  S
C754        C755   1.403       .  A
C754        H770   1.084       .  S
C755        C765   1.399       .  A
C755        C756   1.412       .  A
C756        C762   1.412   1_655  A
C756        C757   1.403       .  A
C757        C759   1.409   1_655  A
C757        C758   1.413       .  A
C758        C766   1.401       .  A
C759        C768   1.388       .  A
C759        C760   1.401       .  A
C760        C761   1.391       .  A
C760        H771   1.084       .  S
C761        C762   1.400       .  A
C761        H772   1.083       .  S
C762        C763   1.389       .  A
C763        C764   1.399       .  A
C763        H773   1.085       .  S
C764        C765   1.404   1_455  A
C765        H774   1.085       .  S
C766        C767   1.404       .  A
C766        H775   1.084       .  S
C767        C768   1.405   1_655  A
C768        H776   1.085       .  S
C777        C778   1.393       .  A
C777        C782   1.400       .  A
C777        H793   1.084       .  S
C778        C779   1.402       .  A
C778        H794   1.084   1_554  S
C779        C789   1.392   1_454  A
C779        C780   1.410   1_455  A
C780        C786   1.413       .  A
C780        C781   1.407       .  A
C781        C783   1.412       .  A
C781        C782   1.413   1_655  A
C782        C790   1.394       .  A
C783        C792   1.403       .  A
C783        C784   1.404       .  A
C784        C785   1.400       .  A
C784        H795   1.084       .  S
C785        C786   1.404       .  A
C785        H796   1.083       .  S
C786        C787   1.404   1_554  A
C787        C788   1.406       .  A
C787        H797   1.084       .  S
C788        C789   1.404       .  A
C789        H798   1.085   1_655  S
C790        C791   1.397       .  A
C790        H799   1.085       .  S
C791        C792   1.403   1_455  A
C792        H800   1.085       .  S
C801        C802   1.401       .  A
C801        C806   1.404       .  A
C801        H817   1.083       .  S
C802        C803   1.404       .  A
C802        H818   1.084       .  S
C803        C813   1.403       .  A
C803        C804   1.411       .  A
C804        C810   1.411   1_455  A
C804        C805   1.407       .  A
C805        C807   1.408       .  A
C805        C806   1.413       .  A
C806        C814   1.406       .  A
C807        C816   1.390       .  A
C807        C808   1.402   1_455  A
C808        C809   1.392       .  A
C808        H819   1.083       .  S
C809        C810   1.400       .  A
C809        H820   1.084       .  S
C810        C811   1.392       .  A
C811        C812   1.403       .  A
C811        H821   1.085       .  S
C812        C813   1.406   1_655  A
C813        H822   1.084       .  S
C814        C815   1.406       .  A
C814        H823   1.084       .  S
C815        C816   1.407       .  A
C816        H824   1.084   1_455  S
C825        C826   1.403       .  A
C825        C830   1.405       .  A
C825        H841   1.083   1_545  S
C826        C827   1.405       .  A
C826        H842   1.083       .  S
C827        C837   1.411       .  A
C827        C828   1.412       .  A
C828        C834   1.410       .  A
C828        C829   1.415       .  A
C829        C831   1.410       .  A
C829        C830   1.413       .  A
C830        C838   1.411   1_545  A
C831        C840   1.400   1_545  A
C831        C832   1.403       .  A
C832        C833   1.397       .  A
C832        H843   1.084       .  S
C833        C834   1.403       .  A
C833        H844   1.084       .  S
C834        C835   1.401       .  A
C835        C836   1.410       .  A
C835        H845   1.084       .  S
C836        C837   1.410       .  A
C837        H846   1.084       .  S
C838        C839   1.408       .  A
C838        H847   1.084       .  S
C839        C840   1.409       .  A
C840        H848   1.084       .  S
C849        C850   1.399       .  A
C849        C854   1.404       .  A
C849        H865   1.084       .  S
C850        C851   1.404       .  A
C850        H866   1.084       .  S
C851        C861   1.401       .  A
C851        C852   1.411       .  A
C852        C858   1.413       .  A
C852        C853   1.411       .  A
C853        C855   1.412       .  A
C853        C854   1.413       .  A
C854        C862   1.404       .  A
C855        C864   1.402       .  A
C855        C856   1.404       .  A
C856        C857   1.398       .  A
C856        H867   1.083       .  S
C857        C858   1.402       .  A
C857        H868   1.084       .  S
C858        C859   1.402       .  A
C859        C860   1.403       .  A
C859        H869   1.085       .  S
C860        C861   1.406       .  A
C861        H870   1.084       .  S
C862        C863   1.405       .  A
C862        H871   1.085       .  S
C863        C864   1.404       .  A
C864        H872   1.085       .  S
C873        C874   1.400       .  A
C873        C878   1.404       .  A
C873        H889   1.083       .  S
C874        C875   1.403       .  A
C874        H890   1.083       .  S
C875        C885   1.407       .  A
C875        C876   1.414       .  A
C876        C882   1.411       .  A
C876        C877   1.413       .  A
C877        C879   1.412       .  A
C877        C878   1.411       .  A
C878        C886   1.403       .  A
C879        C888   1.406       .  A
C879        C880   1.404       .  A
C880        C881   1.400       .  A
C880        H891   1.083       .  S
C881        C882   1.404       .  A
C881        H892   1.084   1_556  S
C882        C883   1.403       .  A
C883        C884   1.406       .  A
C883        H893   1.084       .  S
C884        C885   1.403       .  A
C885        H894   1.084       .  S
C886        C887   1.407       .  A
C886        H895   1.084       .  S
C887        C888   1.408       .  A
C888        H896   1.084       .  S
C897        C898   1.407       .  A
C897        C902   1.407       .  A
C897        H913   1.083       .  S
C898        C899   1.407       .  A
C898        H914   1.084       .  S
C899        C909   1.416       .  A
C899        C900   1.412       .  A
C900        C906   1.411   1_554  A
C900        C901   1.419   1_554  A
C901        C903   1.411       .  A
C901        C902   1.413   1_556  A
C902        C910   1.417       .  A
C903        C912   1.402       .  A
C903        C904   1.402       .  A
C904        C905   1.397       .  A
C904        H915   1.084       .  S
C905        C906   1.403       .  A
C905        H916   1.083       .  S
C906        C907   1.403       .  A
C907        C908   1.409   1_556  A
C907        H917   1.084       .  S
C908        C909   1.414       .  A
C909        H918   1.084       .  S
C910        C911   1.412   1_554  A
C910        H919   1.083       .  S
C911        C912   1.406       .  A
C912        H920   1.085       .  S
C921        C922   1.403       .  A
C921        C926   1.405       .  A
C921        H937   1.084       .  S
C922        C923   1.405       .  A
C922        H938   1.083       .  S
C923        C933   1.410       .  A
C923        C924   1.412       .  A
C924        C930   1.411       .  A
C924        C925   1.416       .  A
C925        C927   1.412       .  A
C925        C926   1.412       .  A
C926        C934   1.408       .  A
C927        C936   1.405       .  A
C927        C928   1.403       .  A
C928        C929   1.399       .  A
C928        H939   1.083       .  S
C929        C930   1.403       .  A
C929        H940   1.084       .  S
C930        C931   1.404       .  A
C931        C932   1.407       .  A
C931        H941   1.085       .  S
C932        C933   1.409       .  A
C933        H942   1.084       .  S
C934        C935   1.409       .  A
C934        H943   1.085       .  S
C935        C936   1.407       .  A
C936        H944   1.084       .  S
C945        C946   1.399       .  A
C945        C950   1.403       .  A
C945        H961   1.084       .  S
C946        C947   1.403       .  A
C946        H962   1.084       .  S
C947        C957   1.401       .  A
C947        C948   1.412       .  A
C948        C954   1.411       .  A
C948        C949   1.406       .  A
C949        C951   1.410       .  A
C949        C950   1.413       .  A
C950        C958   1.402       .  A
C951        C960   1.393       .  A
C951        C952   1.402       .  A
C952        C953   1.394       .  A
C952        H963   1.084       .  S
C953        C954   1.402       .  A
C953        H964   1.084       .  S
C954        C955   1.393       .  A
C955        C956   1.405       .  A
C955        H965   1.085       .  S
C956        C957   1.405       .  A
C957        H966   1.084       .  S
C958        C959   1.404       .  A
C958        H967   1.084       .  S
C959        C960   1.406       .  A
C960        H968   1.085       .  S
C969        C970   1.398       .  A
C969        C974   1.403       .  A
C969        H985   1.083       .  S
C970        C971   1.403       .  A
C970        H986   1.084       .  S
C971        C981   1.400       .  A
C971        C972   1.411       .  A
C972        C978   1.411       .  A
C972        C973   1.408       .  A
C973        C975   1.413       .  A
C973        C974   1.412       .  A
C974        C982   1.399       .  A
C975        C984   1.400       .  A
C975        C976   1.402       .  A
C976        C977   1.397       .  A
C976        H987   1.084       .  S
C977        C978   1.403       .  A
C977        H988   1.083       .  S
C978        C979   1.400       .  A
C979        C980   1.406       .  A
C979        H989   1.084       .  S
C980        C981   1.407       .  A
C981        H990   1.084       .  S
C982        C983   1.401       .  A
C982        H991   1.085       .  S
C983        C984   1.399       .  A
C984        H992   1.085       .  S
C993        C994   1.400       .  A
C993        C998   1.404       .  A
C993       H1009   1.084       .  S
C994        C995   1.404       .  A
C994       H1010   1.083       .  S
C995       C1005   1.407       .  A
C995        C996   1.414       .  A
C996       C1002   1.409       .  A
C996        C997   1.411       .  A
C997        C999   1.412       .  A
C997        C998   1.411       .  A
C998       C1006   1.404       .  A
C999       C1008   1.400       .  A
C999       C1000   1.403       .  A
C1000      C1001   1.397       .  A
C1000      H1011   1.083       .  S
C1001      C1002   1.404       .  A
C1001      H1012   1.084       .  S
C1002      C1003   1.397       .  A
C1003      C1004   1.410       .  A
C1003      H1013   1.085       .  S
C1004      C1005   1.405       .  A
C1005      H1014   1.084       .  S
C1006      C1007   1.408       .  A
C1006      H1015   1.084       .  S
C1007      C1008   1.406       .  A
C1008      H1016   1.084       .  S
C1017      C1018   1.394       .  A
C1017      C1022   1.401       .  A
C1017      H1033   1.085       .  S
C1018      C1019   1.402       .  A
C1018      H1034   1.083       .  S
C1019      C1029   1.393       .  A
C1019      C1020   1.410       .  A
C1020      C1026   1.413       .  A
C1020      C1021   1.406       .  A
C1021      C1023   1.413       .  A
C1021      C1022   1.412       .  A
C1022      C1030   1.395       .  A
C1023      C1032   1.402       .  A
C1023      C1024   1.403       .  A
C1024      C1025   1.399       .  A
C1024      H1035   1.083       .  S
C1025      C1026   1.403       .  A
C1025      H1036   1.084       .  S
C1026      C1027   1.402       .  A
C1027      C1028   1.403       .  A
C1027      H1037   1.084       .  S
C1028      C1029   1.403       .  A
C1029      H1038   1.085       .  S
C1030      C1031   1.400       .  A
C1030      H1039   1.086       .  S
C1031      C1032   1.402       .  A
C1032      H1040   1.084       .  S
C1041      C1042   1.404       .  A
C1041      C1046   1.406       .  A
C1041      H1057   1.083       .  S
C1042      C1043   1.405       .  A
C1042      H1058   1.084       .  S
C1043      C1053   1.412       .  A
C1043      C1044   1.413       .  A
C1044      C1050   1.410       .  A
C1044      C1045   1.415       .  A
C1045      C1047   1.411       .  A
C1045      C1046   1.412       .  A
C1046      C1054   1.412       .  A
C1047      C1056   1.400       .  A
C1047      C1048   1.402       .  A
C1048      C1049   1.396       .  A
C1048      H1059   1.084       .  S
C1049      C1050   1.403       .  A
C1049      H1060   1.083       .  S
C1050      C1051   1.400       .  A
C1051      C1052   1.410       .  A
C1051      H1061   1.084       .  S
C1052      C1053   1.411       .  A
C1053      H1062   1.084       .  S
C1054      C1055   1.411       .  A
C1054      H1063   1.083       .  S
C1055      C1056   1.407       .  A
C1056      H1064   1.085       .  S
C1065      C1066   1.403       .  A
C1065      C1070   1.405       .  A
C1065      H1081   1.084       .  S
C1066      C1067   1.405       .  A
C1066      H1082   1.083       .  S
C1067      C1077   1.413       .  A
C1067      C1068   1.413       .  A
C1068      C1074   1.410       .  A
C1068      C1069   1.416       .  A
C1069      C1071   1.411       .  A
C1069      C1070   1.412       .  A
C1070      C1078   1.410       .  A
C1071      C1080   1.403       .  A
C1071      C1072   1.403       .  A
C1072      C1073   1.399       .  A
C1072      H1083   1.083       .  S
C1073      C1074   1.404       .  A
C1073      H1084   1.084       .  S
C1074      C1075   1.403       .  A
C1075      C1076   1.410       .  A
C1075      H1085   1.085       .  S
C1076      C1077   1.410       .  A
C1077      H1086   1.083       .  S
C1078      C1079   1.409       .  A
C1078      H1087   1.084       .  S
C1079      C1080   1.409       .  A
C1080      H1088   1.084       .  S
C1089      C1090   1.399       .  A
C1089      C1094   1.403       .  A
C1089      H1105   1.083       .  S
C1090      C1091   1.404       .  A
C1090      H1106   1.084       .  S
C1091      C1101   1.403       .  A
C1091      C1092   1.412       .  A
C1092      C1098   1.411       .  A
C1092      C1093   1.409       .  A
C1093      C1095   1.412       .  A
C1093      C1094   1.411       .  A
C1094      C1102   1.401       .  A
C1095      C1104   1.399       .  A
C1095      C1096   1.402       .  A
C1096      C1097   1.397       .  A
C1096      H1107   1.084       .  S
C1097      C1098   1.403       .  A
C1097      H1108   1.084       .  S
C1098      C1099   1.399       .  A
C1099      C1100   1.404       .  A
C1099      H1109   1.085       .  S
C1100      C1101   1.406       .  A
C1101      H1110   1.085       .  S
C1102      C1103   1.405       .  A
C1102      H1111   1.084       .  S
C1103      C1104   1.403       .  A
C1104      H1112   1.085       .  S
C1113      C1114   1.392       .  A
C1113      C1118   1.401       .  A
C1113      H1129   1.084       .  S
C1114      C1115   1.401       .  A
C1114      H1130   1.084       .  S
C1115      C1125   1.391       .  A
C1115      C1116   1.409       .  A
C1116      C1122   1.413       .  A
C1116      C1117   1.408       .  A
C1117      C1119   1.411       .  A
C1117      C1118   1.411       .  A
C1118      C1126   1.393       .  A
C1119      C1128   1.406       .  A
C1119      C1120   1.405       .  A
C1120      C1121   1.402       .  A
C1120      H1131   1.083       .  S
C1121      C1122   1.405       .  A
C1121      H1132   1.083       .  S
C1122      C1123   1.408       .  A
C1123      C1124   1.408       .  A
C1123      H1133   1.084       .  S
C1124      C1125   1.404       .  A
C1125      H1134   1.085       .  S
C1126      C1127   1.403       .  A
C1126      H1135   1.085       .  S
C1127      C1128   1.409       .  A
C1128      H1136   1.084       .  S
C1137      C1138   1.398       .  A
C1137      C1142   1.403       .  A
C1137      H1153   1.084       .  S
C1138      C1139   1.403       .  A
C1138      H1154   1.083       .  S
C1139      C1149   1.402       .  A
C1139      C1140   1.412       .  A
C1140      C1146   1.410       .  A
C1140      C1141   1.409       .  A
C1141      C1143   1.413       .  A
C1141      C1142   1.412       .  A
C1142      C1150   1.400       .  A
C1143      C1152   1.401       .  A
C1143      C1144   1.403       .  A
C1144      C1145   1.397       .  A
C1144      H1155   1.084       .  S
C1145      C1146   1.403       .  A
C1145      H1156   1.084       .  S
C1146      C1147   1.397       .  A
C1147      C1148   1.408       .  A
C1147      H1157   1.084       .  S
C1148      C1149   1.406       .  A
C1149      H1158   1.084       .  S
C1150      C1151   1.400       .  A
C1150      H1159   1.085       .  S
C1151      C1152   1.401       .  A
C1152      H1160   1.085       .  S
C1161      C1162   1.394       .  A
C1161      C1166   1.401       .  A
C1161      H1177   1.084       .  S
C1162      C1163   1.402       .  A
C1162      H1178   1.084       .  S
C1163      C1173   1.391       .  A
C1163      C1164   1.409       .  A
C1164      C1170   1.413       .  A
C1164      C1165   1.406       .  A
C1165      C1167   1.411       .  A
C1165      C1166   1.412       .  A
C1166      C1174   1.395       .  A
C1167      C1176   1.400       .  A
C1167      C1168   1.404       .  A
C1168      C1169   1.399       .  A
C1168      H1179   1.084       .  S
C1169      C1170   1.403       .  A
C1169      H1180   1.083       .  S
C1170      C1171   1.403       .  A
C1171      C1172   1.404       .  A
C1171      H1181   1.084       .  S
C1172      C1173   1.406       .  A
C1173      H1182   1.085       .  S
C1174      C1175   1.404       .  A
C1174      H1183   1.085       .  S
C1175      C1176   1.406       .  A
C1176      H1184   1.084       .  S
C1185      C1186   1.396       .  A
C1185      C1190   1.403       .  A
C1185      H1201   1.084       .  S
C1186      C1187   1.402       .  A
C1186      H1202   1.084       .  S
C1187      C1197   1.396       .  A
C1187      C1188   1.413       .  A
C1188      C1194   1.413       .  A
C1188      C1189   1.405       .  A
C1189      C1191   1.411       .  A
C1189      C1190   1.411       .  A
C1190      C1198   1.396       .  A
C1191      C1200   1.396       .  A
C1191      C1192   1.403       .  A
C1192      C1193   1.396       .  A
C1192      H1203   1.084       .  S
C1193      C1194   1.402       .  A
C1193      H1204   1.084       .  S
C1194      C1195   1.397       .  A
C1195      C1196   1.398       .  A
C1195      H1205   1.085       .  S
C1196      C1197   1.398       .  A
C1197      H1206   1.085       .  S
C1198      C1199   1.405       .  A
C1198      H1207   1.084       .  S
C1199      C1200   1.406       .  A
C1200      H1208   1.084       .  S
C1209      C1210   1.398       .  A
C1209      C1214   1.404       .  A
C1209      H1225   1.084       .  S
C1210      C1211   1.404       .  A
C1210      H1226   1.083       .  S
C1211      C1221   1.401       .  A
C1211      C1212   1.410       .  A
C1212      C1218   1.413       .  A
C1212      C1213   1.414       .  A
C1213      C1215   1.412       .  A
C1213      C1214   1.410       .  A
C1214      C1222   1.402       .  A
C1215      C1224   1.408   1_554  A
C1215      C1216   1.404   1_554  A
C1216      C1217   1.401       .  A
C1216      H1227   1.083       .  S
C1217      C1218   1.404   1_556  A
C1217      H1228   1.084       .  S
C1218      C1219   1.409       .  A
C1219      C1220   1.406       .  A
C1219      H1229   1.085       .  S
C1220      C1221   1.409       .  A
C1221      H1230   1.084       .  S
C1222      C1223   1.411       .  A
C1222      H1231   1.084       .  S
C1223      C1224   1.407   1_554  A
C1224      H1232   1.084       .  S
C1233      C1234   1.399       .  A
C1233      C1238   1.404       .  A
C1233      H1249   1.083   1_556  S
C1234      C1235   1.403       .  A
C1234      H1250   1.084       .  S
C1235      C1245   1.405       .  A
C1235      C1236   1.414       .  A
C1236      C1242   1.411       .  A
C1236      C1237   1.414       .  A
C1237      C1239   1.413       .  A
C1237      C1238   1.411       .  A
C1238      C1246   1.403       .  A
C1239      C1248   1.406       .  A
C1239      C1240   1.404       .  A
C1240      C1241   1.401       .  A
C1240      H1251   1.084       .  S
C1241      C1242   1.405       .  A
C1241      H1252   1.083       .  S
C1242      C1243   1.405       .  A
C1243      C1244   1.407       .  A
C1243      H1253   1.084       .  S
C1244      C1245   1.404       .  A
C1245      H1254   1.085       .  S
C1246      C1247   1.405       .  A
C1246      H1255   1.084   1_556  S
C1247      C1248   1.406       .  A
C1248      H1256   1.085       .  S
C1257      C1258   1.397       .  A
C1257      C1262   1.403       .  A
C1257      H1273   1.084       .  S
C1258      C1259   1.402       .  A
C1258      H1274   1.084       .  S
C1259      C1269   1.400       .  A
C1259      C1260   1.412       .  A
C1260      C1266   1.412       .  A
C1260      C1261   1.412       .  A
C1261      C1263   1.412       .  A
C1261      C1262   1.411       .  A
C1262      C1270   1.400       .  A
C1263      C1272   1.406       .  A
C1263      C1264   1.405       .  A
C1264      C1265   1.401       .  A
C1264      H1275   1.084       .  S
C1265      C1266   1.405       .  A
C1265      H1276   1.084       .  S
C1266      C1267   1.406       .  A
C1267      C1268   1.408       .  A
C1267      H1277   1.084       .  S
C1268      C1269   1.404       .  A
C1269      H1278   1.085       .  S
C1270      C1271   1.406       .  A
C1270      H1279   1.084       .  S
C1271      C1272   1.409       .  A
C1272      H1280   1.084       .  S
C1281      C1282   1.400       .  A
C1281      C1286   1.404       .  A
C1281      H1297   1.083       .  S
C1282      C1283   1.404       .  A
C1282      H1298   1.084       .  S
C1283      C1293   1.406       .  A
C1283      C1284   1.411       .  A
C1284      C1290   1.412       .  A
C1284      C1285   1.416       .  A
C1285      C1287   1.411       .  A
C1285      C1286   1.412       .  A
C1286      C1294   1.406       .  A
C1287      C1296   1.408       .  A
C1287      C1288   1.405       .  A
C1288      C1289   1.401       .  A
C1288      H1299   1.083       .  S
C1289      C1290   1.404       .  A
C1289      H1300   1.084       .  S
C1290      C1291   1.408       .  A
C1291      C1292   1.410       .  A
C1291      H1301   1.084       .  S
C1292      C1293   1.410       .  A
C1293      H1302   1.084       .  S
C1294      C1295   1.408       .  A
C1294      H1303   1.084       .  S
C1295      C1296   1.410       .  A
C1296      H1304   1.084       .  S
C1305      C1306   1.402       .  A
C1305      C1310   1.405       .  A
C1305      H1321   1.084       .  S
C1306      C1307   1.405       .  A
C1306      H1322   1.083       .  S
C1307      C1317   1.407       .  A
C1307      C1308   1.411       .  A
C1308      C1314   1.413       .  A
C1308      C1309   1.416       .  A
C1309      C1311   1.410       .  A
C1309      C1310   1.412       .  A
C1310      C1318   1.409       .  A
C1311      C1320   1.405       .  A
C1311      C1312   1.405       .  A
C1312      C1313   1.400       .  A
C1312      H1323   1.083       .  S
C1313      C1314   1.403       .  A
C1313      H1324   1.084       .  S
C1314      C1315   1.406       .  A
C1315      C1316   1.406       .  A
C1315      H1325   1.085       .  S
C1316      C1317   1.408       .  A
C1317      H1326   1.084       .  S
C1318      C1319   1.411       .  A
C1318      H1327   1.084       .  S
C1319      C1320   1.411       .  A
C1320      H1328   1.084       .  S
C1329      C1330   1.399       .  A
C1329      C1334   1.403       .  A
C1329      H1345   1.083       .  S
C1330      C1331   1.403       .  A
C1330      H1346   1.084       .  S
C1331      C1341   1.402       .  A
C1331      C1332   1.413       .  A
C1332      C1338   1.412       .  A
C1332      C1333   1.410       .  A
C1333      C1335   1.412       .  A
C1333      C1334   1.414       .  A
C1334      C1342   1.404       .  A
C1335      C1344   1.397       .  A
C1335      C1336   1.403       .  A
C1336      C1337   1.397       .  A
C1336      H1347   1.084   1_556  S
C1337      C1338   1.403       .  A
C1337      H1348   1.083       .  S
C1338      C1339   1.399       .  A
C1339      C1340   1.404       .  A
C1339      H1349   1.084       .  S
C1340      C1341   1.403       .  A
C1341      H1350   1.085       .  S
C1342      C1343   1.401       .  A
C1342      H1351   1.084       .  S
C1343      C1344   1.403       .  A
C1344      H1352   1.086   1_556  S
C1353      C1354   1.396       .  A
C1353      C1358   1.402       .  A
C1353      H1369   1.084       .  S
C1354      C1355   1.403   1_545  A
C1354      H1370   1.084   1_545  S
C1355      C1365   1.399       .  A
C1355      C1356   1.409   1_565  A
C1356      C1362   1.413       .  A
C1356      C1357   1.417       .  A
C1357      C1359   1.412       .  A
C1357      C1358   1.411       .  A
C1358      C1366   1.401       .  A
C1359      C1368   1.414       .  A
C1359      C1360   1.406       .  A
C1360      C1361   1.406       .  A
C1360      H1371   1.083       .  S
C1361      C1362   1.406       .  A
C1361      H1372   1.083       .  S
C1362      C1363   1.416   1_545  A
C1363      C1364   1.412       .  A
C1363      H1373   1.083       .  S
C1364      C1365   1.409       .  A
C1365      H1374   1.085       .  S
C1366      C1367   1.406       .  A
C1366      H1375   1.085       .  S
C1367      C1368   1.410       .  A
C1368      H1376   1.084       .  S
C1377      C1378   1.399       .  A
C1377      C1382   1.403       .  A
C1377      H1393   1.084       .  S
C1378      C1379   1.403       .  A
C1378      H1394   1.083       .  S
C1379      C1389   1.405       .  A
C1379      C1380   1.412       .  A
C1380      C1386   1.412       .  A
C1380      C1381   1.416       .  A
C1381      C1383   1.412       .  A
C1381      C1382   1.411       .  A
C1382      C1390   1.404       .  A
C1383      C1392   1.410       .  A
C1383      C1384   1.406       .  A
C1384      C1385   1.403       .  A
C1384      H1395   1.083       .  S
C1385      C1386   1.406       .  A
C1385      H1396   1.084       .  S
C1386      C1387   1.411       .  A
C1387      C1388   1.411       .  A
C1387      H1397   1.084       .  S
C1388      C1389   1.406       .  A
C1389      H1398   1.084       .  S
C1390      C1391   1.409       .  A
C1390      H1399   1.085       .  S
C1391      C1392   1.412       .  A
C1392      H1400   1.084       .  S
C1401      C1402   1.397       .  A
C1401      C1406   1.403       .  A
C1401      H1417   1.084       .  S
C1402      C1403   1.403       .  A
C1402      H1418   1.083       .  S
C1403      C1413   1.399       .  A
C1403      C1404   1.412       .  A
C1404      C1410   1.413       .  A
C1404      C1405   1.410       .  A
C1405      C1407   1.414       .  A
C1405      C1406   1.412       .  A
C1406      C1414   1.399       .  A
C1407      C1416   1.404       .  A
C1407      C1408   1.403       .  A
C1408      C1409   1.399       .  A
C1408      H1419   1.084       .  S
C1409      C1410   1.403       .  A
C1409      H1420   1.083       .  S
C1410      C1411   1.403       .  A
C1411      C1412   1.403       .  A
C1411      H1421   1.084       .  S
C1412      C1413   1.404       .  A
C1413      H1422   1.085       .  S
C1414      C1415   1.404       .  A
C1414      H1423   1.085       .  S
C1415      C1416   1.401       .  A
C1416      H1424   1.085       .  S
C1425      C1426   1.398       .  A
C1425      C1430   1.403       .  A
C1425      H1441   1.084       .  S
C1426      C1427   1.404       .  A
C1426      H1442   1.083       .  S
C1427      C1437   1.401       .  A
C1427      C1428   1.412       .  A
C1428      C1434   1.412       .  A
C1428      C1429   1.408       .  A
C1429      C1431   1.413       .  A
C1429      C1430   1.411       .  A
C1430      C1438   1.400   1_554  A
C1431      C1440   1.399   1_554  A
C1431      C1432   1.402       .  A
C1432      C1433   1.397       .  A
C1432      H1443   1.083       .  S
C1433      C1434   1.403       .  A
C1433      H1444   1.083       .  S
C1434      C1435   1.400       .  A
C1435      C1436   1.403       .  A
C1435      H1445   1.084       .  S
C1436      C1437   1.405       .  A
C1437      H1446   1.084       .  S
C1438      C1439   1.405       .  A
C1438      H1447   1.085       .  S
C1439      C1440   1.400       .  A
C1440      H1448   1.084       .  S
C1449      C1450   1.400       .  A
C1449      C1454   1.404       .  A
C1449      H1465   1.084       .  S
C1450      C1451   1.404       .  A
C1450      H1466   1.083       .  S
C1451      C1461   1.402       .  A
C1451      C1452   1.411       .  A
C1452      C1458   1.411       .  A
C1452      C1453   1.405       .  A
C1453      C1455   1.409       .  A
C1453      C1454   1.414       .  A
C1454      C1462   1.406       .  A
C1455      C1464   1.388       .  A
C1455      C1456   1.401       .  A
C1456      C1457   1.391       .  A
C1456      H1467   1.083       .  S
C1457      C1458   1.400       .  A
C1457      H1468   1.084       .  S
C1458      C1459   1.390       .  A
C1459      C1460   1.403       .  A
C1459      H1469   1.085       .  S
C1460      C1461   1.406       .  A
C1461      H1470   1.084       .  S
C1462      C1463   1.404       .  A
C1462      H1471   1.084       .  S
C1463      C1464   1.404       .  A
C1464      H1472   1.085       .  S
C1473      C1474   1.400       .  A
C1473      C1478   1.405       .  A
C1473      H1489   1.084       .  S
C1474      C1475   1.404       .  A
C1474      H1490   1.084       .  S
C1475      C1485   1.404       .  A
C1475      C1476   1.412       .  A
C1476      C1482   1.411       .  A
C1476      C1477   1.413       .  A
C1477      C1479   1.412       .  A
C1477      C1478   1.410       .  A
C1478      C1486   1.404       .  A
C1479      C1488   1.405       .  A
C1479      C1480   1.403       .  A
C1480      C1481   1.399       .  A
C1480      H1491   1.084       .  S
C1481      C1482   1.403       .  A
C1481      H1492   1.084       .  S
C1482      C1483   1.403       .  A
C1483      C1484   1.408       .  A
C1483      H1493   1.084       .  S
C1484      C1485   1.408       .  A
C1485      H1494   1.084       .  S
C1486      C1487   1.411       .  A
C1486      H1495   1.084       .  S
C1487      C1488   1.407       .  A
C1488      H1496   1.084       .  S
C1497      C1498   1.399       .  A
C1497      C1502   1.403   1_556  A
C1497      H1513   1.084       .  S
C1498      C1499   1.403       .  A
C1498      H1514   1.083       .  S
C1499      C1509   1.402       .  A
C1499      C1500   1.413       .  A
C1500      C1506   1.412       .  A
C1500      C1501   1.407       .  A
C1501      C1503   1.410   1_556  A
C1501      C1502   1.412   1_556  A
C1502      C1510   1.402       .  A
C1503      C1512   1.395       .  A
C1503      C1504   1.402       .  A
C1504      C1505   1.395   1_554  A
C1504      H1515   1.084       .  S
C1505      C1506   1.401       .  A
C1505      H1516   1.084       .  S
C1506      C1507   1.395       .  A
C1507      C1508   1.399       .  A
C1507      H1517   1.084       .  S
C1508      C1509   1.402       .  A
C1509      H1518   1.084       .  S
C1510      C1511   1.405       .  A
C1510      H1519   1.084       .  S
C1511      C1512   1.405       .  A
C1512      H1520   1.085       .  S
C1521      C1522   1.393       .  A
C1521      C1526   1.402       .  A
C1521      H1537   1.083       .  S
C1522      C1523   1.401       .  A
C1522      H1538   1.085       .  S
C1523      C1533   1.395       .  A
C1523      C1524   1.413       .  A
C1524      C1530   1.410       .  A
C1524      C1525   1.407       .  A
C1525      C1527   1.414       .  A
C1525      C1526   1.408       .  A
C1526      C1534   1.391       .  A
C1527      C1536   1.406       .  A
C1527      C1528   1.403       .  A
C1528      C1529   1.401       .  A
C1528      H1539   1.084       .  S
C1529      C1530   1.405       .  A
C1529      H1540   1.083       .  S
C1530      C1531   1.403       .  A
C1531      C1532   1.408       .  A
C1531      H1541   1.084       .  S
C1532      C1533   1.403       .  A
C1533      H1542   1.085       .  S
C1534      C1535   1.406       .  A
C1534      H1543   1.085       .  S
C1535      C1536   1.404       .  A
C1536      H1544   1.084       .  S
C1545      C1546   1.406       .  A
C1545      C1550   1.406       .  A
C1545      H1561   1.083       .  S
C1546      C1547   1.406   1_545  A
C1546      H1562   1.083   1_545  S
C1547      C1557   1.413       .  A
C1547      C1548   1.413   1_565  A
C1548      C1554   1.411       .  A
C1548      C1549   1.414       .  A
C1549      C1551   1.410       .  A
C1549      C1550   1.412       .  A
C1550      C1558   1.414       .  A
C1551      C1560   1.397       .  A
C1551      C1552   1.402       .  A
C1552      C1553   1.394       .  A
C1552      H1563   1.084       .  S
C1553      C1554   1.401       .  A
C1553      H1564   1.084       .  S
C1554      C1555   1.396   1_545  A
C1555      C1556   1.404       .  A
C1555      H1565   1.085       .  S
C1556      C1557   1.410       .  A
C1557      H1566   1.084       .  S
C1558      C1559   1.412       .  A
C1558      H1567   1.084       .  S
C1559      C1560   1.408       .  A
C1560      H1568   1.084       .  S
C1569      C1570   1.400       .  A
C1569      C1574   1.404       .  A
C1569      H1585   1.083       .  S
C1570      C1571   1.404       .  A
C1570      H1586   1.084       .  S
C1571      C1581   1.406       .  A
C1571      C1572   1.412       .  A
C1572      C1578   1.410       .  A
C1572      C1573   1.412       .  A
C1573      C1575   1.412       .  A
C1573      C1574   1.411       .  A
C1574      C1582   1.404       .  A
C1575      C1584   1.402       .  A
C1575      C1576   1.403       .  A
C1576      C1577   1.398       .  A
C1576      H1587   1.084       .  S
C1577      C1578   1.403       .  A
C1577      H1588   1.083       .  S
C1578      C1579   1.401       .  A
C1579      C1580   1.409       .  A
C1579      H1589   1.084       .  S
C1580      C1581   1.409       .  A
C1581      H1590   1.084       .  S
C1582      C1583   1.409       .  A
C1582      H1591   1.084       .  S
C1583      C1584   1.407       .  A
C1584      H1592   1.084       .  S
C1593      C1594   1.397       .  A
C1593      C1598   1.403       .  A
C1593      H1609   1.084       .  S
C1594      C1595   1.403       .  A
C1594      H1610   1.084       .  S
C1595      C1605   1.401       .  A
C1595      C1596   1.414       .  A
C1596      C1602   1.412       .  A
C1596      C1597   1.407       .  A
C1597      C1599   1.414       .  A
C1597      C1598   1.412       .  A
C1598      C1606   1.397       .  A
C1599      C1608   1.399       .  A
C1599      C1600   1.402       .  A
C1600      C1601   1.396       .  A
C1600      H1611   1.084       .  S
C1601      C1602   1.403       .  A
C1601      H1612   1.083       .  S
C1602      C1603   1.397       .  A
C1603      C1604   1.400       .  A
C1603      H1613   1.085       .  S
C1604      C1605   1.400       .  A
C1605      H1614   1.085       .  S
C1606      C1607   1.400       .  A
C1606      H1615   1.085       .  S
C1607      C1608   1.399       .  A
C1608      H1616   1.085       .  S
C1617      C1618   1.396       .  A
C1617      C1622   1.402       .  A
C1617      H1633   1.084       .  S
C1618      C1619   1.402       .  A
C1618      H1634   1.084       .  S
C1619      C1629   1.399       .  A
C1619      C1620   1.411       .  A
C1620      C1626   1.412       .  A
C1620      C1621   1.412       .  A
C1621      C1623   1.413       .  A
C1621      C1622   1.410       .  A
C1622      C1630   1.398       .  A
C1623      C1632   1.409       .  A
C1623      C1624   1.405       .  A
C1624      C1625   1.402       .  A
C1624      H1635   1.083       .  S
C1625      C1626   1.405       .  A
C1625      H1636   1.084       .  S
C1626      C1627   1.407       .  A
C1627      C1628   1.409       .  A
C1627      H1637   1.084       .  S
C1628      C1629   1.407       .  A
C1629      H1638   1.084       .  S
C1630      C1631   1.406       .  A
C1630      H1639   1.085       .  S
C1631      C1632   1.407       .  A
C1632      H1640   1.084       .  S
C1641      C1642   1.399       .  A
C1641      C1646   1.404       .  A
C1641      H1657   1.084       .  S
C1642      C1643   1.403       .  A
C1642      H1658   1.084       .  S
C1643      C1653   1.404       .  A
C1643      C1644   1.412       .  A
C1644      C1650   1.410       .  A
C1644      C1645   1.412       .  A
C1645      C1647   1.413       .  A
C1645      C1646   1.409       .  A
C1646      C1654   1.401       .  A
C1647      C1656   1.405       .  A
C1647      C1648   1.403       .  A
C1648      C1649   1.399       .  A
C1648      H1659   1.083       .  S
C1649      C1650   1.404       .  A
C1649      H1660   1.084       .  S
C1650      C1651   1.402       .  A
C1651      C1652   1.409       .  A
C1651      H1661   1.084       .  S
C1652      C1653   1.407       .  A
C1653      H1662   1.084       .  S
C1654      C1655   1.410       .  A
C1654      H1663   1.084       .  S
C1655      C1656   1.407       .  A
C1656      H1664   1.084       .  S
C1665      C1666   1.401       .  A
C1665      C1670   1.405       .  A
C1665      H1681   1.083       .  S
C1666      C1667   1.404       .  A
C1666      H1682   1.084       .  S
C1667      C1677   1.408       .  A
C1667      C1668   1.412       .  A
C1668      C1674   1.410       .  A
C1668      C1669   1.413       .  A
C1669      C1671   1.412       .  A
C1669      C1670   1.411       .  A
C1670      C1678   1.406       .  A
C1671      C1680   1.402       .  A
C1671      C1672   1.403       .  A
C1672      C1673   1.397       .  A
C1672      H1683   1.084       .  S
C1673      C1674   1.403       .  A
C1673      H1684   1.084       .  S
C1674      C1675   1.400       .  A
C1675      C1676   1.409       .  A
C1675      H1685   1.084       .  S
C1676      C1677   1.409       .  A
C1677      H1686   1.084       .  S
C1678      C1679   1.408       .  A
C1678      H1687   1.084       .  S
C1679      C1680   1.405       .  A
C1680      H1688   1.085       .  S
C1689      C1690   1.396       .  A
C1689      C1694   1.403   1_655  A
C1689      H1705   1.084       .  S
C1690      C1691   1.402       .  A
C1690      H1706   1.084       .  S
C1691      C1701   1.397       .  A
C1691      C1692   1.412   1_655  A
C1692      C1698   1.412       .  A
C1692      C1693   1.409       .  A
C1693      C1695   1.412       .  A
C1693      C1694   1.410       .  A
C1694      C1702   1.398       .  A
C1695      C1704   1.403       .  A
C1695      C1696   1.404       .  A
C1696      C1697   1.399       .  A
C1696      H1707   1.084       .  S
C1697      C1698   1.404       .  A
C1697      H1708   1.083       .  S
C1698      C1699   1.402       .  A
C1699      C1700   1.405       .  A
C1699      H1709   1.084       .  S
C1700      C1701   1.402   1_455  A
C1701      H1710   1.085       .  S
C1702      C1703   1.407       .  A
C1702      H1711   1.084       .  S
C1703      C1704   1.406       .  A
C1704      H1712   1.084       .  S
C1713      C1714   1.399       .  A
C1713      C1718   1.403   1_556  A
C1713      H1729   1.084       .  S
C1714      C1715   1.404       .  A
C1714      H1730   1.083       .  S
C1715      C1725   1.401       .  A
C1715      C1716   1.412   1_655  A
C1716      C1722   1.413       .  A
C1716      C1717   1.407   1_456  A
C1717      C1719   1.410   1_655  A
C1717      C1718   1.412       .  A
C1718      C1726   1.402       .  A
C1719      C1728   1.394       .  A
C1719      C1720   1.402       .  A
C1720      C1721   1.394   1_554  A
C1720      H1731   1.083       .  S
C1721      C1722   1.401       .  A
C1721      H1732   1.084       .  S
C1722      C1723   1.396       .  A
C1723      C1724   1.400       .  A
C1723      H1733   1.085       .  S
C1724      C1725   1.404   1_455  A
C1725      H1734   1.084       .  S
C1726      C1727   1.406       .  A
C1726      H1735   1.084       .  S
C1727      C1728   1.405   1_655  A
C1728      H1736   1.084       .  S
C1737      C1738   1.395       .  A
C1737      C1742   1.401       .  A
C1737      H1753   1.084       .  S
C1738      C1739   1.403   1_655  A
C1738      H1754   1.083       .  S
C1739      C1749   1.395   1_554  A
C1739      C1740   1.409       .  A
C1740      C1746   1.413       .  A
C1740      C1741   1.408       .  A
C1741      C1743   1.412       .  A
C1741      C1742   1.413   1_455  A
C1742      C1750   1.396       .  A
C1743      C1752   1.401       .  A
C1743      C1744   1.403       .  A
C1744      C1745   1.399       .  A
C1744      H1755   1.083       .  S
C1745      C1746   1.403       .  A
C1745      H1756   1.084       .  S
C1746      C1747   1.404   1_554  A
C1747      C1748   1.406       .  A
C1747      H1757   1.084       .  S
C1748      C1749   1.409       .  A
C1749      H1758   1.084       .  S
C1750      C1751   1.398   1_655  A
C1750      H1759   1.085       .  S
C1751      C1752   1.401       .  A
C1752      H1760   1.084       .  S
C1761      C1762   1.395       .  A
C1761      C1766   1.402   1_455  A
C1761      H1777   1.084       .  S
C1762      C1763   1.402       .  A
C1762      H1778   1.084       .  S
C1763      C1773   1.395       .  A
C1763      C1764   1.411       .  A
C1764      C1770   1.412   1_455  A
C1764      C1765   1.407   1_455  A
C1765      C1767   1.414       .  A
C1765      C1766   1.410       .  A
C1766      C1774   1.394       .  A
C1767      C1776   1.403       .  A
C1767      C1768   1.403       .  A
C1768      C1769   1.399       .  A
C1768      H1779   1.083       .  S
C1769      C1770   1.403       .  A
C1769      H1780   1.084       .  S
C1770      C1771   1.401   1_655  A
C1771      C1772   1.405       .  A
C1771      H1781   1.084   1_455  S
C1772      C1773   1.405       .  A
C1773      H1782   1.084       .  S
C1774      C1775   1.403       .  A
C1774      H1783   1.085       .  S
C1775      C1776   1.401       .  A
C1776      H1784   1.084       .  S
C1785      C1786   1.392       .  A
C1785      C1790   1.401       .  A
C1785      H1801   1.084       .  S
C1786      C1787   1.401       .  A
C1786      H1802   1.084       .  S
C1787      C1797   1.392       .  A
C1787      C1788   1.410       .  A
C1788      C1794   1.413       .  A
C1788      C1789   1.412       .  A
C1789      C1791   1.412       .  A
C1789      C1790   1.410       .  A
C1790      C1798   1.393       .  A
C1791      C1800   1.413       .  A
C1791      C1792   1.406       .  A
C1792      C1793   1.406       .  A
C1792      H1803   1.083       .  S
C1793      C1794   1.406       .  A
C1793      H1804   1.083       .  S
C1794      C1795   1.414       .  A
C1795      C1796   1.409       .  A
C1795      H1805   1.083       .  S
C1796      C1797   1.404       .  A
C1797      H1806   1.085       .  S
C1798      C1799   1.407       .  A
C1798      H1807   1.085       .  S
C1799      C1800   1.411       .  A
C1800      H1808   1.084       .  S
C1809      C1810   1.400       .  A
C1809      C1814   1.404       .  A
C1809      H1825   1.084       .  S
C1810      C1811   1.404       .  A
C1810      H1826   1.084       .  S
C1811      C1821   1.402       .  A
C1811      C1812   1.410       .  A
C1812      C1818   1.413       .  A
C1812      C1813   1.412       .  A
C1813      C1815   1.410       .  A
C1813      C1814   1.413       .  A
C1814      C1822   1.406       .  A
C1815      C1824   1.401       .  A
C1815      C1816   1.404       .  A
C1816      C1817   1.398       .  A
C1816      H1827   1.084       .  S
C1817      C1818   1.403       .  A
C1817      H1828   1.083       .  S
C1818      C1819   1.403       .  A
C1819      C1820   1.404       .  A
C1819      H1829   1.084       .  S
C1820      C1821   1.407       .  A
C1821      H1830   1.085       .  S
C1822      C1823   1.408       .  A
C1822      H1831   1.084       .  S
C1823      C1824   1.409       .  A
C1824      H1832   1.084       .  S
C1833      C1834   1.395       .  A
C1833      C1838   1.402       .  A
C1833      H1849   1.085       .  S
C1834      C1835   1.402       .  A
C1834      H1850   1.083       .  S
C1835      C1845   1.396       .  A
C1835      C1836   1.411       .  A
C1836      C1842   1.415       .  A
C1836      C1837   1.411       .  A
C1837      C1839   1.412       .  A
C1837      C1838   1.412       .  A
C1838      C1846   1.397       .  A
C1839      C1848   1.407       .  A
C1839      C1840   1.405       .  A
C1840      C1841   1.402       .  A
C1840      H1851   1.083       .  S
C1841      C1842   1.404       .  A
C1841      H1852   1.084       .  S
C1842      C1843   1.410       .  A
C1843      C1844   1.405       .  A
C1843      H1853   1.085       .  S
C1844      C1845   1.402       .  A
C1845      H1854   1.085       .  S
C1846      C1847   1.404       .  A
C1846      H1855   1.086       .  S
C1847      C1848   1.406       .  A
C1848      H1856   1.084       .  S
C1857      C1858   1.397       .  A
C1857      C1862   1.403       .  A
C1857      H1873   1.083       .  S
C1858      C1859   1.403       .  A
C1858      H1874   1.084       .  S
C1859      C1869   1.398       .  A
C1859      C1860   1.411       .  A
C1860      C1866   1.414       .  A
C1860      C1861   1.410       .  A
C1861      C1863   1.412       .  A
C1861      C1862   1.413       .  A
C1862      C1870   1.401       .  A
C1863      C1872   1.403       .  A
C1863      C1864   1.404       .  A
C1864      C1865   1.399       .  A
C1864      H1875   1.084       .  S
C1865      C1866   1.403       .  A
C1865      H1876   1.084       .  S
C1866      C1867   1.405       .  A
C1867      C1868   1.402       .  A
C1867      H1877   1.084       .  S
C1868      C1869   1.402       .  A
C1869      H1878   1.086       .  S
C1870      C1871   1.403       .  A
C1870      H1879   1.084       .  S
C1871      C1872   1.402       .  A
C1872      H1880   1.085       .  S
C1881      C1882   1.399       .  A
C1881      C1886   1.404       .  A
C1881      H1897   1.084       .  S
C1882      C1883   1.403       .  A
C1882      H1898   1.083       .  S
C1883      C1893   1.407       .  A
C1883      C1884   1.413       .  A
C1884      C1890   1.409       .  A
C1884      C1885   1.414       .  A
C1885      C1887   1.413       .  A
C1885      C1886   1.409       .  A
C1886      C1894   1.402       .  A
C1887      C1896   1.407       .  A
C1887      C1888   1.404       .  A
C1888      C1889   1.400       .  A
C1888      H1899   1.083       .  S
C1889      C1890   1.404       .  A
C1889      H1900   1.084       .  S
C1890      C1891   1.403       .  A
C1891      C1892   1.411       .  A
C1891      H1901   1.084       .  S
C1892      C1893   1.408       .  A
C1893      H1902   1.084       .  S
C1894      C1895   1.409       .  A
C1894      H1903   1.084       .  S
C1895      C1896   1.409       .  A
C1896      H1904   1.084       .  S
C1905      C1906   1.397       .  A
C1905      C1910   1.403       .  A
C1905      H1921   1.083       .  S
C1906      C1907   1.402       .  A
C1906      H1922   1.084       .  S
C1907      C1917   1.401       .  A
C1907      C1908   1.413       .  A
C1908      C1914   1.411       .  A
C1908      C1909   1.409       .  A
C1909      C1911   1.412       .  A
C1909      C1910   1.410       .  A
C1910      C1918   1.399       .  A
C1911      C1920   1.401       .  A
C1911      C1912   1.403       .  A
C1912      C1913   1.398       .  A
C1912      H1923   1.084       .  S
C1913      C1914   1.403       .  A
C1913      H1924   1.084       .  S
C1914      C1915   1.399       .  A
C1915      C1916   1.404       .  A
C1915      H1925   1.085       .  S
C1916      C1917   1.403       .  A
C1917      H1926   1.085       .  S
C1918      C1919   1.408       .  A
C1918      H1927   1.084       .  S
C1919      C1920   1.407       .  A
C1920      H1928   1.084       .  S
C1929      C1930   1.396       .  A
C1929      C1934   1.402       .  A
C1929      H1945   1.084       .  S
C1930      C1931   1.403       .  A
C1930      H1946   1.083       .  S
C1931      C1941   1.398       .  A
C1931      C1932   1.411       .  A
C1932      C1938   1.415       .  A
C1932      C1933   1.412       .  A
C1933      C1935   1.412       .  A
C1933      C1934   1.413       .  A
C1934      C1942   1.400       .  A
C1935      C1944   1.406       .  A
C1935      C1936   1.405       .  A
C1936      C1937   1.401       .  A
C1936      H1947   1.083       .  S
C1937      C1938   1.404       .  A
C1937      H1948   1.084       .  S
C1938      C1939   1.408       .  A
C1939      C1940   1.404       .  A
C1939      H1949   1.085       .  S
C1940      C1941   1.402       .  A
C1941      H1950   1.084       .  S
C1942      C1943   1.403       .  A
C1942      H1951   1.085       .  S
C1943      C1944   1.405       .  A
C1944      H1952   1.084       .  S
C1953      C1954   1.399       .  A
C1953      C1958   1.404       .  A
C1953      H1969   1.084       .  S
C1954      C1955   1.403       .  A
C1954      H1970   1.084       .  S
C1955      C1965   1.403       .  A
C1955      C1956   1.412       .  A
C1956      C1962   1.411       .  A
C1956      C1957   1.411       .  A
C1957      C1959   1.412       .  A
C1957      C1958   1.411       .  A
C1958      C1966   1.403       .  A
C1959      C1968   1.402       .  A
C1959      C1960   1.403       .  A
C1960      C1961   1.397       .  A
C1960      H1971   1.084       .  S
C1961      C1962   1.403       .  A
C1961      H1972   1.084       .  S
C1962      C1963   1.399       .  A
C1963      C1964   1.406       .  A
C1963      H1973   1.084       .  S
C1964      C1965   1.406       .  A
C1965      H1974   1.084       .  S
C1966      C1967   1.409       .  A
C1966      H1975   1.084       .  S
C1967      C1968   1.407       .  A
C1968      H1976   1.084       .  S
C1977      C1978   1.402       .  A
C1977      C1982   1.404       .  A
C1977      H1993   1.084       .  S
C1978      C1979   1.404       .  A
C1978      H1994   1.083       .  S
C1979      C1989   1.407       .  A
C1979      C1980   1.413       .  A
C1980      C1986   1.410       .  A
C1980      C1981   1.410       .  A
C1981      C1983   1.409       .  A
C1981      C1982   1.413       .  A
C1982      C1990   1.408       .  A
C1983      C1992   1.394       .  A
C1983      C1984   1.402       .  A
C1984      C1985   1.394       .  A
C1984      H1995   1.083       .  S
C1985      C1986   1.402       .  A
C1985      H1996   1.084       .  S
C1986      C1987   1.394       .  A
C1987      C1988   1.405       .  A
C1987      H1997   1.085       .  S
C1988      C1989   1.405       .  A
C1989      H1998   1.084       .  S
C1990      C1991   1.407       .  A
C1990      H1999   1.084       .  S
C1991      C1992   1.409       .  A
C1992      H2000   1.084       .  S
C2001      C2002   1.401       .  A
C2001      C2006   1.404       .  A
C2001      H2017   1.083       .  S
C2002      C2003   1.404       .  A
C2002      H2018   1.084       .  S
C2003      C2013   1.408       .  A
C2003      C2004   1.412       .  A
C2004      C2010   1.411       .  A
C2004      C2005   1.415       .  A
C2005      C2007   1.411       .  A
C2005      C2006   1.412       .  A
C2006      C2014   1.408       .  A
C2007      C2016   1.403       .  A
C2007      C2008   1.404       .  A
C2008      C2009   1.399       .  A
C2008      H2019   1.083       .  S
C2009      C2010   1.404       .  A
C2009      H2020   1.084       .  S
C2010      C2011   1.404       .  A
C2011      C2012   1.411       .  A
C2011      H2021   1.084       .  S
C2012      C2013   1.408       .  A
C2013      H2022   1.084       .  S
C2014      C2015   1.409       .  A
C2014      H2023   1.084       .  S
C2015      C2016   1.409       .  A
C2016      H2024   1.084       .  S
C2025      C2026   1.402       .  A
C2025      C2030   1.404       .  A
C2025      H2041   1.084       .  S
C2026      C2027   1.405       .  A
C2026      H2042   1.083       .  S
C2027      C2037   1.409       .  A
C2027      C2028   1.412       .  A
C2028      C2034   1.412       .  A
C2028      C2029   1.415       .  A
C2029      C2031   1.412       .  A
C2029      C2030   1.414       .  A
C2030      C2038   1.408       .  A
C2031      C2040   1.402       .  A
C2031      C2032   1.403       .  A
C2032      C2033   1.398       .  A
C2032      H2043   1.084       .  S
C2033      C2034   1.403       .  A
C2033      H2044   1.084       .  S
C2034      C2035   1.403       .  A
C2035      C2036   1.406       .  A
C2035      H2045   1.085       .  S
C2036      C2037   1.409       .  A
C2037      H2046   1.084   1_556  S
C2038      C2039   1.404       .  A
C2038      H2047   1.085       .  S
C2039      C2040   1.404       .  A
C2040      H2048   1.085       .  S
C2049      C2050   1.397       .  A
C2049      C2054   1.403       .  A
C2049      H2065   1.084       .  S
C2050      C2051   1.403       .  A
C2050      H2066   1.083       .  S
C2051      C2061   1.400       .  A
C2051      C2052   1.412       .  A
C2052      C2058   1.411       .  A
C2052      C2053   1.410       .  A
C2053      C2055   1.413       .  A
C2053      C2054   1.411       .  A
C2054      C2062   1.398       .  A
C2055      C2064   1.403       .  A
C2055      C2056   1.403       .  A
C2056      C2057   1.399       .  A
C2056      H2067   1.084       .  S
C2057      C2058   1.404       .  A
C2057      H2068   1.084       .  S
C2058      C2059   1.402       .  A
C2059      C2060   1.406       .  A
C2059      H2069   1.084       .  S
C2060      C2061   1.405       .  A
C2061      H2070   1.084       .  S
C2062      C2063   1.404       .  A
C2062      H2071   1.085       .  S
C2063      C2064   1.404       .  A
C2064      H2072   1.084       .  S
C2073      C2074   1.395       .  A
C2073      C2078   1.402       .  A
C2073      H2089   1.084       .  S
C2074      C2075   1.401       .  A
C2074      H2090   1.084       .  S
C2075      C2085   1.396       .  A
C2075      C2076   1.412       .  A
C2076      C2082   1.413       .  A
C2076      C2077   1.407       .  A
C2077      C2079   1.412       .  A
C2077      C2078   1.410       .  A
C2078      C2086   1.395       .  A
C2079      C2088   1.403       .  A
C2079      C2080   1.404       .  A
C2080      C2081   1.399       .  A
C2080      H2091   1.083       .  S
C2081      C2082   1.403       .  A
C2081      H2092   1.084       .  S
C2082      C2083   1.402       .  A
C2083      C2084   1.402       .  A
C2083      H2093   1.085       .  S
C2084      C2085   1.399       .  A
C2085      H2094   1.085       .  S
C2086      C2087   1.405       .  A
C2086      H2095   1.085       .  S
C2087      C2088   1.407       .  A
C2088      H2096   1.084       .  S
C2097      C2098   1.403       .  A
C2097      C2102   1.405       .  A
C2097      H2113   1.084       .  S
C2098      C2099   1.405       .  A
C2098      H2114   1.083       .  S
C2099      C2109   1.410       .  A
C2099      C2100   1.414       .  A
C2100      C2106   1.409       .  A
C2100      C2101   1.410       .  A
C2101      C2103   1.411       .  A
C2101      C2102   1.411       .  A
C2102      C2110   1.407       .  A
C2103      C2112   1.394       .  A
C2103      C2104   1.401       .  A
C2104      C2105   1.392       .  A
C2104      H2115   1.084       .  S
C2105      C2106   1.402       .  A
C2105      H2116   1.084       .  S
C2106      C2107   1.391       .  A
C2107      C2108   1.406       .  A
C2107      H2117   1.085       .  S
C2108      C2109   1.407       .  A
C2109      H2118   1.084       .  S
C2110      C2111   1.410       .  A
C2110      H2119   1.084       .  S
C2111      C2112   1.405       .  A
C2112      H2120   1.084       .  S
C2121      C2122   1.399       .  A
C2121      C2126   1.403       .  A
C2121      H2137   1.083       .  S
C2122      C2123   1.404       .  A
C2122      H2138   1.084       .  S
C2123      C2133   1.402       .  A
C2123      C2124   1.411       .  A
C2124      C2130   1.411       .  A
C2124      C2125   1.411       .  A
C2125      C2127   1.411       .  A
C2125      C2126   1.412       .  A
C2126      C2134   1.403       .  A
C2127      C2136   1.401       .  A
C2127      C2128   1.403       .  A
C2128      C2129   1.398       .  A
C2128      H2139   1.083       .  S
C2129      C2130   1.403       .  A
C2129      H2140   1.084       .  S
C2130      C2131   1.401       .  A
C2131      C2132   1.408       .  A
C2131      H2141   1.084       .  S
C2132      C2133   1.408       .  A
C2133      H2142   1.084       .  S
C2134      C2135   1.405       .  A
C2134      H2143   1.084       .  S
C2135      C2136   1.405       .  A
C2136      H2144   1.084       .  S
C2145      C2146   1.396       .  A
C2145      C2150   1.403       .  A
C2145      H2161   1.083       .  S
C2146      C2147   1.403       .  A
C2146      H2162   1.084       .  S
C2147      C2157   1.394       .  A
C2147      C2148   1.410       .  A
C2148      C2154   1.414       .  A
C2148      C2149   1.406       .  A
C2149      C2151   1.412       .  A
C2149      C2150   1.412       .  A
C2150      C2158   1.398       .  A
C2151      C2160   1.397       .  A
C2151      C2152   1.402       .  A
C2152      C2153   1.396       .  A
C2152      H2163   1.084       .  S
C2153      C2154   1.402       .  A
C2153      H2164   1.083       .  S
C2154      C2155   1.400       .  A
C2155      C2156   1.399       .  A
C2155      H2165   1.084       .  S
C2156      C2157   1.404       .  A
C2157      H2166   1.085       .  S
C2158      C2159   1.403       .  A
C2158      H2167   1.084       .  S
C2159      C2160   1.401       .  A
C2160      H2168   1.085       .  S
C2169      C2170   1.400       .  A
C2169      C2174   1.404       .  A
C2169      H2185   1.084       .  S
C2170      C2171   1.404       .  A
C2170      H2186   1.083       .  S
C2171      C2181   1.402       .  A
C2171      C2172   1.410       .  A
C2172      C2178   1.412       .  A
C2172      C2173   1.407       .  A
C2173      C2175   1.409       .  A
C2173      C2174   1.413       .  A
C2174      C2182   1.405       .  A
C2175      C2184   1.392       .  A
C2175      C2176   1.402       .  A
C2176      C2177   1.393       .  A
C2176      H2187   1.084       .  S
C2177      C2178   1.401       .  A
C2177      H2188   1.084       .  S
C2178      C2179   1.395       .  A
C2179      C2180   1.402       .  A
C2179      H2189   1.085       .  S
C2180      C2181   1.408       .  A
C2181      H2190   1.084       .  S
C2182      C2183   1.406       .  A
C2182      H2191   1.084       .  S
C2183      C2184   1.407       .  A
C2184      H2192   1.085       .  S
C2193      C2194   1.402       .  A
C2193      C2198   1.405   1_556  A
C2193      H2209   1.083       .  S
C2194      C2195   1.405       .  A
C2194      H2210   1.084       .  S
C2195      C2205   1.409       .  A
C2195      C2196   1.413   1_556  A
C2196      C2202   1.410       .  A
C2196      C2197   1.412       .  A
C2197      C2199   1.412       .  A
C2197      C2198   1.412       .  A
C2198      C2206   1.408       .  A
C2199      C2208   1.400       .  A
C2199      C2200   1.402       .  A
C2200      C2201   1.396       .  A
C2200      H2211   1.084       .  S
C2201      C2202   1.403       .  A
C2201      H2212   1.084       .  S
C2202      C2203   1.398       .  A
C2203      C2204   1.407       .  A
C2203      H2213   1.085       .  S
C2204      C2205   1.408   1_554  A
C2205      H2214   1.084       .  S
C2206      C2207   1.407       .  A
C2206      H2215   1.084       .  S
C2207      C2208   1.405       .  A
C2208      H2216   1.085       .  S
C2217      C2218   1.400       .  A
C2217      C2222   1.404       .  A
C2217      H2233   1.084       .  S
C2218      C2219   1.404       .  A
C2218      H2234   1.084       .  S
C2219      C2229   1.406       .  A
C2219      C2220   1.413       .  A
C2220      C2226   1.411       .  A
C2220      C2221   1.413       .  A
C2221      C2223   1.414       .  A
C2221      C2222   1.411       .  A
C2222      C2230   1.403       .  A
C2223      C2232   1.407       .  A
C2223      C2224   1.404       .  A
C2224      C2225   1.400       .  A
C2224      H2235   1.084       .  S
C2225      C2226   1.404       .  A
C2225      H2236   1.083       .  S
C2226      C2227   1.403       .  A
C2227      C2228   1.405       .  A
C2227      H2237   1.084       .  S
C2228      C2229   1.406       .  A
C2229      H2238   1.084       .  S
C2230      C2231   1.407       .  A
C2230      H2239   1.085       .  S
C2231      C2232   1.405       .  A
C2232      H2240   1.084       .  S
C2241      C2242   1.399       .  A
C2241      C2246   1.403       .  A
C2241      H2257   1.084       .  S
C2242      C2243   1.404       .  A
C2242      H2258   1.083       .  S
C2243      C2253   1.403       .  A
C2243      C2244   1.411       .  A
C2244      C2250   1.411       .  A
C2244      C2245   1.411       .  A
C2245      C2247   1.410       .  A
C2245      C2246   1.412       .  A
C2246      C2254   1.403       .  A
C2247      C2256   1.400       .  A
C2247      C2248   1.403       .  A
C2248      C2249   1.397       .  A
C2248      H2259   1.084       .  S
C2249      C2250   1.403       .  A
C2249      H2260   1.084       .  S
C2250      C2251   1.400       .  A
C2251      C2252   1.406       .  A
C2251      H2261   1.084       .  S
C2252      C2253   1.408       .  A
C2253      H2262   1.084       .  S
C2254      C2255   1.407       .  A
C2254      H2263   1.084       .  S
C2255      C2256   1.409       .  A
C2256      H2264   1.084       .  S
C2265      C2266   1.397       .  A
C2265      C2270   1.403       .  A
C2265      H2281   1.083       .  S
C2266      C2267   1.402       .  A
C2266      H2282   1.084       .  S
C2267      C2277   1.400       .  A
C2267      C2268   1.413       .  A
C2268      C2274   1.412       .  A
C2268      C2269   1.410       .  A
C2269      C2271   1.414       .  A
C2269      C2270   1.412       .  A
C2270      C2278   1.399       .  A
C2271      C2280   1.404       .  A
C2271      C2272   1.403       .  A
C2272      C2273   1.399       .  A
C2272      H2283   1.084       .  S
C2273      C2274   1.404       .  A
C2273      H2284   1.083       .  S
C2274      C2275   1.403       .  A
C2275      C2276   1.403       .  A
C2275      H2285   1.085       .  S
C2276      C2277   1.401       .  A
C2277      H2286   1.085       .  S
C2278      C2279   1.401       .  A
C2278      H2287   1.085       .  S
C2279      C2280   1.402       .  A
C2280      H2288   1.085       .  S
C2289      C2290   1.401       .  A
C2289      C2294   1.404       .  A
C2289      H2305   1.083       .  S
C2290      C2291   1.404       .  A
C2290      H2306   1.084       .  S
C2291      C2301   1.406       .  A
C2291      C2292   1.411       .  A
C2292      C2298   1.411       .  A
C2292      C2293   1.414       .  A
C2293      C2295   1.412       .  A
C2293      C2294   1.412       .  A
C2294      C2302   1.406       .  A
C2295      C2304   1.404       .  A
C2295      C2296   1.404       .  A
C2296      C2297   1.400       .  A
C2296      H2307   1.084       .  S
C2297      C2298   1.404       .  A
C2297      H2308   1.083       .  S
C2298      C2299   1.406       .  A
C2299      C2300   1.409       .  A
C2299      H2309   1.084       .  S
C2300      C2301   1.410       .  A
C2301      H2310   1.084       .  S
C2302      C2303   1.408       .  A
C2302      H2311   1.084       .  S
C2303      C2304   1.407       .  A
C2304      H2312   1.085       .  S
C2313      C2314   1.401       .  A
C2313      C2318   1.404       .  A
C2313      H2329   1.083       .  S
C2314      C2315   1.405       .  A
C2314      H2330   1.083       .  S
C2315      C2325   1.407       .  A
C2315      C2316   1.412       .  A
C2316      C2322   1.412       .  A
C2316      C2317   1.415       .  A
C2317      C2319   1.411       .  A
C2317      C2318   1.415       .  A
C2318      C2326   1.410       .  A
C2319      C2328   1.401       .  A
C2319      C2320   1.403       .  A
C2320      C2321   1.399       .  A
C2320      H2331   1.085       .  S
C2321      C2322   1.404       .  A
C2321      H2332   1.083       .  S
C2322      C2323   1.404       .  A
C2323      C2324   1.407       .  A
C2323      H2333   1.084       .  S
C2324      C2325   1.406       .  A
C2325      H2334   1.084       .  S
C2326      C2327   1.404       .  A
C2326      H2335   1.084       .  S
C2327      C2328   1.404       .  A
C2328      H2336   1.085       .  S
C2337      C2338   1.405       .  A
C2337      C2342   1.406       .  A
C2337      H2353   1.083       .  S
C2338      C2339   1.405       .  A
C2338      H2354   1.083       .  S
C2339      C2349   1.416       .  A
C2339      C2340   1.415       .  A
C2340      C2346   1.409       .  A
C2340      C2341   1.416       .  A
C2341      C2343   1.411       .  A
C2341      C2342   1.411       .  A
C2342      C2350   1.411       .  A
C2343      C2352   1.401       .  A
C2343      C2344   1.402       .  A
C2344      C2345   1.396       .  A
C2344      H2355   1.084       .  S
C2345      C2346   1.403       .  A
C2345      H2356   1.084       .  S
C2346      C2347   1.398       .  A
C2347      C2348   1.408       .  A
C2347      H2357   1.085       .  S
C2348      C2349   1.409       .  A
C2349      H2358   1.084       .  S
C2350      C2351   1.412       .  A
C2350      H2359   1.084       .  S
C2351      C2352   1.408       .  A
C2352      H2360   1.084       .  S
C2361      C2362   1.399       .  A
C2361      C2366   1.403       .  A
C2361      H2377   1.083       .  S
C2362      C2363   1.404       .  A
C2362      H2378   1.084       .  S
C2363      C2373   1.402       .  A
C2363      C2364   1.411       .  A
C2364      C2370   1.412       .  A
C2364      C2365   1.410       .  A
C2365      C2367   1.411       .  A
C2365      C2366   1.414       .  A
C2366      C2374   1.404       .  A
C2367      C2376   1.399       .  A
C2367      C2368   1.403       .  A
C2368      C2369   1.397       .  A
C2368      H2379   1.083       .  S
C2369      C2370   1.403       .  A
C2369      H2380   1.083       .  S
C2370      C2371   1.400       .  A
C2371      C2372   1.406       .  A
C2371      H2381   1.084       .  S
C2372      C2373   1.406       .  A
C2373      H2382   1.085       .  S
C2374      C2375   1.402       .  A
C2374      H2383   1.084       .  S
C2375      C2376   1.403       .  A
C2376      H2384   1.084       .  S
C2385      C2386   1.400       .  A
C2385      C2390   1.405       .  A
C2385      H2401   1.083       .  S
C2386      C2387   1.403       .  A
C2386      H2402   1.084       .  S
C2387      C2397   1.404       .  A
C2387      C2388   1.413       .  A
C2388      C2394   1.411       .  A
C2388      C2389   1.413       .  A
C2389      C2391   1.413       .  A
C2389      C2390   1.411       .  A
C2390      C2398   1.404       .  A
C2391      C2400   1.405       .  A
C2391      C2392   1.403       .  A
C2392      C2393   1.399       .  A
C2392      H2403   1.084       .  S
C2393      C2394   1.404       .  A
C2393      H2404   1.083       .  S
C2394      C2395   1.403       .  A
C2395      C2396   1.406       .  A
C2395      H2405   1.083       .  S
C2396      C2397   1.405       .  A
C2397      H2406   1.085       .  S
C2398      C2399   1.407       .  A
C2398      H2407   1.085       .  S
C2399      C2400   1.404       .  A
C2400      H2408   1.085       .  S
C2409      C2410   1.399       .  A
C2409      C2414   1.404       .  A
C2409      H2425   1.084       .  S
C2410      C2411   1.403       .  A
C2410      H2426   1.083       .  S
C2411      C2421   1.405       .  A
C2411      C2412   1.412       .  A
C2412      C2418   1.410       .  A
C2412      C2413   1.414       .  A
C2413      C2415   1.412       .  A
C2413      C2414   1.410       .  A
C2414      C2422   1.403       .  A
C2415      C2424   1.407       .  A
C2415      C2416   1.404       .  A
C2416      C2417   1.400       .  A
C2416      H2427   1.083       .  S
C2417      C2418   1.404       .  A
C2417      H2428   1.084       .  S
C2418      C2419   1.404       .  A
C2419      C2420   1.411       .  A
C2419      H2429   1.084       .  S
C2420      C2421   1.408       .  A
C2421      H2430   1.084       .  S
C2422      C2423   1.409       .  A
C2422      H2431   1.084       .  S
C2423      C2424   1.409       .  A
C2424      H2432   1.084       .  S
C2433      C2434   1.394       .  A
C2433      C2438   1.401       .  A
C2433      H2449   1.084       .  S
C2434      C2435   1.402       .  A
C2434      H2450   1.084   1_554  S
C2435      C2445   1.394   1_554  A
C2435      C2436   1.410       .  A
C2436      C2442   1.412       .  A
C2436      C2437   1.408       .  A
C2437      C2439   1.413       .  A
C2437      C2438   1.411       .  A
C2438      C2446   1.393       .  A
C2439      C2448   1.404       .  A
C2439      C2440   1.403       .  A
C2440      C2441   1.400       .  A
C2440      H2451   1.084       .  S
C2441      C2442   1.404       .  A
C2441      H2452   1.083       .  S
C2442      C2443   1.405   1_554  A
C2443      C2444   1.408       .  A
C2443      H2453   1.084       .  S
C2444      C2445   1.407       .  A
C2445      H2454   1.084       .  S
C2446      C2447   1.403       .  A
C2446      H2455   1.085       .  S
C2447      C2448   1.403       .  A
C2448      H2456   1.085       .  S
C2457      C2458   1.396       .  A
C2457      C2462   1.402       .  A
C2457      H2473   1.083       .  S
C2458      C2459   1.403       .  A
C2458      H2474   1.084       .  S
C2459      C2469   1.398       .  A
C2459      C2460   1.411       .  A
C2460      C2466   1.411       .  A
C2460      C2461   1.408       .  A
C2461      C2463   1.413       .  A
C2461      C2462   1.412       .  A
C2462      C2470   1.397       .  A
C2463      C2472   1.401       .  A
C2463      C2464   1.403       .  A
C2464      C2465   1.398       .  A
C2464      H2475   1.084       .  S
C2465      C2466   1.403       .  A
C2465      H2476   1.083       .  S
C2466      C2467   1.400       .  A
C2467      C2468   1.407       .  A
C2467      H2477   1.084       .  S
C2468      C2469   1.406       .  A
C2469      H2478   1.084       .  S
C2470      C2471   1.400       .  A
C2470      H2479   1.085       .  S
C2471      C2472   1.401       .  A
C2472      H2480   1.085       .  S
C2481      C2482   1.397       .  A
C2481      C2486   1.402       .  A
C2481      H2497   1.083       .  S
C2482      C2483   1.402       .  A
C2482      H2498   1.084       .  S
C2483      C2493   1.399       .  A
C2483      C2484   1.411       .  A
C2484      C2490   1.412       .  A
C2484      C2485   1.411       .  A
C2485      C2487   1.411       .  A
C2485      C2486   1.412       .  A
C2486      C2494   1.400       .  A
C2487      C2496   1.404       .  A
C2487      C2488   1.404       .  A
C2488      C2489   1.400       .  A
C2488      H2499   1.083       .  S
C2489      C2490   1.404       .  A
C2489      H2500   1.084       .  S
C2490      C2491   1.404       .  A
C2491      C2492   1.407       .  A
C2491      H2501   1.085       .  S
C2492      C2493   1.404       .  A
C2493      H2502   1.084       .  S
C2494      C2495   1.404       .  A
C2494      H2503   1.084       .  S
C2495      C2496   1.407       .  A
C2496      H2504   1.084       .  S
C2505      C2506   1.397       .  A
C2505      C2510   1.404       .  A
C2505      H2521   1.083       .  S
C2506      C2507   1.402       .  A
C2506      H2522   1.084       .  S
C2507      C2517   1.399       .  A
C2507      C2508   1.414       .  A
C2508      C2514   1.411       .  A
C2508      C2509   1.408       .  A
C2509      C2511   1.413       .  A
C2509      C2510   1.409       .  A
C2510      C2518   1.397       .  A
C2511      C2520   1.403       .  A
C2511      C2512   1.403       .  A
C2512      C2513   1.398       .  A
C2512      H2523   1.084       .  S
C2513      C2514   1.403       .  A
C2513      H2524   1.083       .  S
C2514      C2515   1.398       .  A
C2515      C2516   1.402       .  A
C2515      H2525   1.084       .  S
C2516      C2517   1.401       .  A
C2517      H2526   1.085       .  S
C2518      C2519   1.409       .  A
C2518      H2527   1.084       .  S
C2519      C2520   1.406       .  A
C2520      H2528   1.084       .  S
C2529      C2530   1.399       .  A
C2529      C2534   1.403       .  A
C2529      H2545   1.084       .  S
C2530      C2531   1.404       .  A
C2530      H2546   1.084       .  S
C2531      C2541   1.401       .  A
C2531      C2532   1.411       .  A
C2532      C2538   1.412       .  A
C2532      C2533   1.406       .  A
C2533      C2535   1.409   1_556  A
C2533      C2534   1.414       .  A
C2534      C2542   1.404   1_556  A
C2535      C2544   1.391       .  A
C2535      C2536   1.402       .  A
C2536      C2537   1.393   1_554  A
C2536      H2547   1.084       .  S
C2537      C2538   1.401       .  A
C2537      H2548   1.083       .  S
C2538      C2539   1.394       .  A
C2539      C2540   1.402       .  A
C2539      H2549   1.085       .  S
C2540      C2541   1.404       .  A
C2541      H2550   1.085       .  S
C2542      C2543   1.403       .  A
C2542      H2551   1.084       .  S
C2543      C2544   1.405       .  A
C2544      H2552   1.085       .  S
C2553      C2554   1.396       .  A
C2553      C2558   1.402       .  A
C2553      H2569   1.084       .  S
C2554      C2555   1.402       .  A
C2554      H2570   1.084       .  S
C2555      C2565   1.398       .  A
C2555      C2556   1.410       .  A
C2556      C2562   1.413       .  A
C2556      C2557   1.414       .  A
C2557      C2559   1.413       .  A
C2557      C2558   1.411       .  A
C2558      C2566   1.399       .  A
C2559      C2568   1.412       .  A
C2559      C2560   1.406       .  A
C2560      C2561   1.404       .  A
C2560      H2571   1.083       .  S
C2561      C2562   1.406       .  A
C2561      H2572   1.083       .  S
C2562      C2563   1.413       .  A
C2563      C2564   1.410       .  A
C2563      H2573   1.084       .  S
C2564      C2565   1.406       .  A
C2565      H2574   1.085       .  S
C2566      C2567   1.406       .  A
C2566      H2575   1.085       .  S
C2567      C2568   1.408       .  A
C2568      H2576   1.084       .  S
C2577      C2578   1.401       .  A
C2577      C2582   1.404       .  A
C2577      H2593   1.083       .  S
C2578      C2579   1.405       .  A
C2578      H2594   1.084       .  S
C2579      C2589   1.407       .  A
C2579      C2580   1.412       .  A
C2580      C2586   1.411       .  A
C2580      C2581   1.415       .  A
C2581      C2583   1.411       .  A
C2581      C2582   1.412       .  A
C2582      C2590   1.407       .  A
C2583      C2592   1.403       .  A
C2583      C2584   1.403       .  A
C2584      C2585   1.399       .  A
C2584      H2595   1.083       .  S
C2585      C2586   1.404       .  A
C2585      H2596   1.084       .  S
C2586      C2587   1.404       .  A
C2587      C2588   1.409       .  A
C2587      H2597   1.084       .  S
C2588      C2589   1.410       .  A
C2589      H2598   1.084       .  S
C2590      C2591   1.409       .  A
C2590      H2599   1.084       .  S
C2591      C2592   1.408       .  A
C2592      H2600   1.084       .  S
C2601      C2602   1.401       .  A
C2601      C2606   1.404       .  A
C2601      H2617   1.084       .  S
C2602      C2603   1.404       .  A
C2602      H2618   1.083       .  S
C2603      C2613   1.406       .  A
C2603      C2604   1.413       .  A
C2604      C2610   1.412       .  A
C2604      C2605   1.412       .  A
C2605      C2607   1.412       .  A
C2605      C2606   1.414       .  A
C2606      C2614   1.407       .  A
C2607      C2616   1.400       .  A
C2607      C2608   1.403       .  A
C2608      C2609   1.397       .  A
C2608      H2619   1.084   1_556  S
C2609      C2610   1.403       .  A
C2609      H2620   1.083       .  S
C2610      C2611   1.400       .  A
C2611      C2612   1.403       .  A
C2611      H2621   1.085       .  S
C2612      C2613   1.404       .  A
C2613      H2622   1.085       .  S
C2614      C2615   1.403       .  A
C2614      H2623   1.085       .  S
C2615      C2616   1.403       .  A
C2616      H2624   1.085   1_556  S
C2625      C2626   1.403       .  A
C2625      C2630   1.405       .  A
C2625      H2641   1.084       .  S
C2626      C2627   1.405       .  A
C2626      H2642   1.083       .  S
C2627      C2637   1.412       .  A
C2627      C2628   1.414       .  A
C2628      C2634   1.410       .  A
C2628      C2629   1.416       .  A
C2629      C2631   1.413       .  A
C2629      C2630   1.410       .  A
C2630      C2638   1.407       .  A
C2631      C2640   1.406       .  A
C2631      C2632   1.403       .  A
C2632      C2633   1.399       .  A
C2632      H2643   1.083       .  S
C2633      C2634   1.403       .  A
C2633      H2644   1.084       .  S
C2634      C2635   1.402       .  A
C2635      C2636   1.408       .  A
C2635      H2645   1.085       .  S
C2636      C2637   1.409       .  A
C2637      H2646   1.084       .  S
C2638      C2639   1.412       .  A
C2638      H2647   1.084       .  S
C2639      C2640   1.407       .  A
C2640      H2648   1.084       .  S
C2649      C2650   1.406       .  A
C2649      C2654   1.406       .  A
C2649      H2665   1.084       .  S
C2650      C2651   1.406       .  A
C2650      H2666   1.083       .  S
C2651      C2661   1.415       .  A
C2651      C2652   1.413   1_554  A
C2652      C2658   1.410       .  A
C2652      C2653   1.417   1_556  A
C2653      C2655   1.410   1_554  A
C2653      C2654   1.412       .  A
C2654      C2662   1.415       .  A
C2655      C2664   1.400       .  A
C2655      C2656   1.403       .  A
C2656      C2657   1.396       .  A
C2656      H2667   1.083       .  S
C2657      C2658   1.402       .  A
C2657      H2668   1.084       .  S
C2658      C2659   1.399       .  A
C2659      C2660   1.408       .  A
C2659      H2669   1.085       .  S
C2660      C2661   1.410   1_556  A
C2661      H2670   1.083       .  S
C2662      C2663   1.412       .  A
C2662      H2671   1.084       .  S
C2663      C2664   1.409   1_554  A
C2664      H2672   1.084       .  S
C2673      C2674   1.400       .  A
C2673      C2678   1.404       .  A
C2673      H2689   1.083       .  S
C2674      C2675   1.403       .  A
C2674      H2690   1.084       .  S
C2675      C2685   1.405       .  A
C2675      C2676   1.412       .  A
C2676      C2682   1.410       .  A
C2676      C2677   1.414       .  A
C2677      C2679   1.412       .  A
C2677      C2678   1.410       .  A
C2678      C2686   1.404       .  A
C2679      C2688   1.405       .  A
C2679      C2680   1.403       .  A
C2680      C2681   1.400       .  A
C2680      H2691   1.084       .  S
C2681      C2682   1.404       .  A
C2681      H2692   1.083       .  S
C2682      C2683   1.404       .  A
C2683      C2684   1.410       .  A
C2683      H2693   1.084       .  S
C2684      C2685   1.407       .  A
C2685      H2694   1.084       .  S
C2686      C2687   1.411       .  A
C2686      H2695   1.084       .  S
C2687      C2688   1.408       .  A
C2688      H2696   1.084       .  S
C2697      C2698   1.401       .  A
C2697      C2702   1.405       .  A
C2697      H2713   1.083       .  S
C2698      C2699   1.404       .  A
C2698      H2714   1.084       .  S
C2699      C2709   1.408       .  A
C2699      C2700   1.414       .  A
C2700      C2706   1.411       .  A
C2700      C2701   1.414       .  A
C2701      C2703   1.413       .  A
C2701      C2702   1.412       .  A
C2702      C2710   1.406       .  A
C2703      C2712   1.403       .  A
C2703      C2704   1.403       .  A
C2704      C2705   1.399       .  A
C2704      H2715   1.084       .  S
C2705      C2706   1.404       .  A
C2705      H2716   1.083       .  S
C2706      C2707   1.403       .  A
C2707      C2708   1.406       .  A
C2707      H2717   1.085       .  S
C2708      C2709   1.405       .  A
C2709      H2718   1.084       .  S
C2710      C2711   1.407       .  A
C2710      H2719   1.084       .  S
C2711      C2712   1.405       .  A
C2712      H2720   1.085       .  S
C2721      C2722   1.396       .  A
C2721      C2726   1.402       .  A
C2721      H2737   1.083       .  S
C2722      C2723   1.402       .  A
C2722      H2738   1.084       .  S
C2723      C2733   1.399       .  A
C2723      C2724   1.411       .  A
C2724      C2730   1.411       .  A
C2724      C2725   1.411       .  A
C2725      C2727   1.411       .  A
C2725      C2726   1.411       .  A
C2726      C2734   1.400       .  A
C2727      C2736   1.404       .  A
C2727      C2728   1.404       .  A
C2728      C2729   1.400       .  A
C2728      H2739   1.084       .  S
C2729      C2730   1.404       .  A
C2729      H2740   1.084       .  S
C2730      C2731   1.405       .  A
C2731      C2732   1.409       .  A
C2731      H2741   1.084       .  S
C2732      C2733   1.404       .  A
C2733      H2742   1.084       .  S
C2734      C2735   1.406       .  A
C2734      H2743   1.084       .  S
C2735      C2736   1.408       .  A
C2736      H2744   1.084   1_655  S
C2745      C2746   1.399       .  A
C2745      C2750   1.404       .  A
C2745      H2761   1.083       .  S
C2746      C2747   1.403       .  A
C2746      H2762   1.084       .  S
C2747      C2757   1.403       .  A
C2747      C2748   1.414       .  A
C2748      C2754   1.409       .  A
C2748      C2749   1.406       .  A
C2749      C2751   1.413       .  A
C2749      C2750   1.411       .  A
C2750      C2758   1.400       .  A
C2751      C2760   1.395       .  A
C2751      C2752   1.401       .  A
C2752      C2753   1.394       .  A
C2752      H2763   1.084       .  S
C2753      C2754   1.402       .  A
C2753      H2764   1.084       .  S
C2754      C2755   1.391       .  A
C2755      C2756   1.403       .  A
C2755      H2765   1.085       .  S
C2756      C2757   1.402       .  A
C2757      H2766   1.085       .  S
C2758      C2759   1.403       .  A
C2758      H2767   1.084       .  S
C2759      C2760   1.400       .  A
C2760      H2768   1.085       .  S
C2769      C2770   1.398       .  A
C2769      C2774   1.403       .  A
C2769      H2785   1.083       .  S
C2770      C2771   1.402       .  A
C2770      H2786   1.083       .  S
C2771      C2781   1.402       .  A
C2771      C2772   1.413       .  A
C2772      C2778   1.409       .  A
C2772      C2773   1.406       .  A
C2773      C2775   1.413       .  A
C2773      C2774   1.410       .  A
C2774      C2782   1.399       .  A
C2775      C2784   1.397       .  A
C2775      C2776   1.401       .  A
C2776      C2777   1.395       .  A
C2776      H2787   1.084       .  S
C2777      C2778   1.403       .  A
C2777      H2788   1.084       .  S
C2778      C2779   1.393       .  A
C2779      C2780   1.408       .  A
C2779      H2789   1.085       .  S
C2780      C2781   1.404       .  A
C2781      H2790   1.084       .  S
C2782      C2783   1.405       .  A
C2782      H2791   1.084       .  S
C2783      C2784   1.402       .  A
C2784      H2792   1.085       .  S
C2793      C2794   1.400       .  A
C2793      C2798   1.403       .  A
C2793      H2809   1.084       .  S
C2794      C2795   1.404       .  A
C2794      H2810   1.083       .  S
C2795      C2805   1.405       .  A
C2795      C2796   1.413       .  A
C2796      C2802   1.412       .  A
C2796      C2797   1.410       .  A
C2797      C2799   1.411       .  A
C2797      C2798   1.414       .  A
C2798      C2806   1.405       .  A
C2799      C2808   1.396       .  A
C2799      C2800   1.402       .  A
C2800      C2801   1.396       .  A
C2800      H2811   1.083       .  S
C2801      C2802   1.402       .  A
C2801      H2812   1.084       .  S
C2802      C2803   1.397       .  A
C2803      C2804   1.402       .  A
C2803      H2813   1.085       .  S
C2804      C2805   1.404       .  A
C2805      H2814   1.084       .  S
C2806      C2807   1.401       .  A
C2806      H2815   1.085       .  S
C2807      C2808   1.401       .  A
C2808      H2816   1.085       .  S
C2817      C2818   1.401       .  A
C2817      C2822   1.404       .  A
C2817      H2833   1.084       .  S
C2818      C2819   1.404       .  A
C2818      H2834   1.083       .  S
C2819      C2829   1.405       .  A
C2819      C2820   1.412       .  A
C2820      C2826   1.412       .  A
C2820      C2821   1.412       .  A
C2821      C2823   1.410       .  A
C2821      C2822   1.413       .  A
C2822      C2830   1.407       .  A
C2823      C2832   1.400       .  A
C2823      C2824   1.404       .  A
C2824      C2825   1.398       .  A
C2824      H2835   1.084       .  S
C2825      C2826   1.403       .  A
C2825      H2836   1.083       .  S
C2826      C2827   1.401       .  A
C2827      C2828   1.405       .  A
C2827      H2837   1.084       .  S
C2828      C2829   1.406       .  A
C2829      H2838   1.084       .  S
C2830      C2831   1.408       .  A
C2830      H2839   1.084       .  S
C2831      C2832   1.410       .  A
C2832      H2840   1.084       .  S
C2841      C2842   1.398       .  A
C2841      C2846   1.403       .  A
C2841      H2857   1.084       .  S
C2842      C2843   1.403       .  A
C2842      H2858   1.084       .  S
C2843      C2853   1.400       .  A
C2843      C2844   1.410       .  A
C2844      C2850   1.412       .  A
C2844      C2845   1.411       .  A
C2845      C2847   1.410       .  A
C2845      C2846   1.412       .  A
C2846      C2854   1.403       .  A
C2847      C2856   1.402       .  A
C2847      C2848   1.404       .  A
C2848      C2849   1.399       .  A
C2848      H2859   1.084       .  S
C2849      C2850   1.403       .  A
C2849      H2860   1.084       .  S
C2850      C2851   1.403       .  A
C2851      C2852   1.407       .  A
C2851      H2861   1.084       .  S
C2852      C2853   1.408       .  A
C2853      H2862   1.084       .  S
C2854      C2855   1.407       .  A
C2854      H2863   1.084       .  S
C2855      C2856   1.409       .  A
C2856      H2864   1.084       .  S
C2865      C2866   1.396       .  A
C2865      C2870   1.402       .  A
C2865      H2881   1.084       .  S
C2866      C2867   1.402       .  A
C2866      H2882   1.083       .  S
C2867      C2877   1.397       .  A
C2867      C2868   1.413       .  A
C2868      C2874   1.412       .  A
C2868      C2869   1.403       .  A
C2869      C2871   1.411       .  A
C2869      C2870   1.412       .  A
C2870      C2878   1.397       .  A
C2871      C2880   1.392       .  A
C2871      C2872   1.402       .  A
C2872      C2873   1.394       .  A
C2872      H2883   1.083       .  S
C2873      C2874   1.401       .  A
C2873      H2884   1.084       .  S
C2874      C2875   1.392       .  A
C2875      C2876   1.398       .  A
C2875      H2885   1.086       .  S
C2876      C2877   1.398       .  A
C2877      H2886   1.084       .  S
C2878      C2879   1.402       .  A
C2878      H2887   1.085       .  S
C2879      C2880   1.404       .  A
C2880      H2888   1.085       .  S
C2889      C2890   1.399       .  A
C2889      C2894   1.403       .  A
C2889      H2905   1.084       .  S
C2890      C2891   1.403       .  A
C2890      H2906   1.083       .  S
C2891      C2901   1.404       .  A
C2891      C2892   1.414       .  A
C2892      C2898   1.409       .  A
C2892      C2893   1.406       .  A
C2893      C2895   1.412       .  A
C2893      C2894   1.412       .  A
C2894      C2902   1.402       .  A
C2895      C2904   1.394       .  A
C2895      C2896   1.401       .  A
C2896      C2897   1.394       .  A
C2896      H2907   1.084       .  S
C2897      C2898   1.402       .  A
C2897      H2908   1.084       .  S
C2898      C2899   1.391       .  A
C2899      C2900   1.407       .  A
C2899      H2909   1.085       .  S
C2900      C2901   1.404       .  A
C2901      H2910   1.084       .  S
C2902      C2903   1.404       .  A
C2902      H2911   1.085       .  S
C2903      C2904   1.404       .  A
C2904      H2912   1.085       .  S
C2913      C2914   1.401       .  A
C2913      C2918   1.404       .  A
C2913      H2929   1.083       .  S
C2914      C2915   1.404       .  A
C2914      H2930   1.084       .  S
C2915      C2925   1.406       .  A
C2915      C2916   1.413       .  A
C2916      C2922   1.410       .  A
C2916      C2917   1.409       .  A
C2917      C2919   1.412       .  A
C2917      C2918   1.413       .  A
C2918      C2926   1.405       .  A
C2919      C2928   1.396       .  A
C2919      C2920   1.402       .  A
C2920      C2921   1.395       .  A
C2920      H2931   1.084       .  S
C2921      C2922   1.402       .  A
C2921      H2932   1.083       .  S
C2922      C2923   1.396       .  A
C2923      C2924   1.405       .  A
C2923      H2933   1.084       .  S
C2924      C2925   1.406       .  A
C2925      H2934   1.084       .  S
C2926      C2927   1.404       .  A
C2926      H2935   1.084       .  S
C2927      C2928   1.402       .  A
C2928      H2936   1.085       .  S
C2937      C2938   1.396       .  A
C2937      C2942   1.402       .  A
C2937      H2953   1.083       .  S
C2938      C2939   1.402       .  A
C2938      H2954   1.084       .  S
C2939      C2949   1.396       .  A
C2939      C2940   1.412       .  A
C2940      C2946   1.414       .  A
C2940      C2941   1.407       .  A
C2941      C2943   1.412       .  A
C2941      C2942   1.414       .  A
C2942      C2950   1.398       .  A
C2943      C2952   1.399       .  A
C2943      C2944   1.403       .  A
C2944      C2945   1.398       .  A
C2944      H2955   1.084       .  S
C2945      C2946   1.403       .  A
C2945      H2956   1.083       .  S
C2946      C2947   1.402       .  A
C2947      C2948   1.401       .  A
C2947      H2957   1.085       .  S
C2948      C2949   1.400       .  A
C2949      H2958   1.086       .  S
C2950      C2951   1.399       .  A
C2950      H2959   1.085       .  S
C2951      C2952   1.400       .  A
C2952      H2960   1.085       .  S
C2961      C2962   1.397       .  A
C2961      C2966   1.403       .  A
C2961      H2977   1.083       .  S
C2962      C2963   1.403       .  A
C2962      H2978   1.084       .  S
C2963      C2973   1.399       .  A
C2963      C2964   1.410       .  A
C2964      C2970   1.411       .  A
C2964      C2965   1.410       .  A
C2965      C2967   1.411       .  A
C2965      C2966   1.412       .  A
C2966      C2974   1.401       .  A
C2967      C2976   1.403       .  A
C2967      C2968   1.404       .  A
C2968      C2969   1.399       .  A
C2968      H2979   1.084       .  S
C2969      C2970   1.403       .  A
C2969      H2980   1.083       .  S
C2970      C2971   1.403       .  A
C2971      C2972   1.407       .  A
C2971      H2981   1.084       .  S
C2972      C2973   1.408       .  A
C2973      H2982   1.084       .  S
C2974      C2975   1.406       .  A
C2974      H2983   1.084       .  S
C2975      C2976   1.407       .  A
C2976      H2984   1.085       .  S
C2985      C2986   1.399       .  A
C2985      C2990   1.403       .  A
C2985      H3001   1.084       .  S
C2986      C2987   1.403       .  A
C2986      H3002   1.084       .  S
C2987      C2997   1.402       .  A
C2987      C2988   1.411       .  A
C2988      C2994   1.412       .  A
C2988      C2989   1.412       .  A
C2989      C2991   1.411       .  A
C2989      C2990   1.412       .  A
C2990      C2998   1.403       .  A
C2991      C3000   1.404       .  A
C2991      C2992   1.404       .  A
C2992      C2993   1.400       .  A
C2992      H3003   1.083       .  S
C2993      C2994   1.404       .  A
C2993      H3004   1.084       .  S
C2994      C2995   1.406       .  A
C2995      C2996   1.407       .  A
C2995      H3005   1.084       .  S
C2996      C2997   1.406       .  A
C2997      H3006   1.085       .  S
C2998      C2999   1.406       .  A
C2998      H3007   1.085       .  S
C2999      C3000   1.406       .  A
C3000      H3008   1.084       .  S
