geometry optimzed in LAMMPS
_audit_creation_date              2020-12-01 
_audit_creation_method            'lammps2cif' 
_symmetry_space_group_name_H-M    'P1' 
_symmetry_Int_Tables_number       1 
_symmetry_cell_setting            triclinic 
loop_ 
_symmetry_equiv_pos_as_xyz 
  x,y,z 
_cell_length_a                    26.2706359 
_cell_length_b                    26.397783042432625 
_cell_length_c                    39.770395662704864 
_cell_angle_alpha                 89.40337382895578 
_cell_angle_beta                  89.0252093126696 
_cell_angle_gamma                 89.0380545136723 
loop_ 
_atom_site_label 
_atom_site_type_symbol 
_atom_site_fract_x 
_atom_site_fract_y 
_atom_site_fract_z 
_atom_site_charge 
O1          O  0.90025737  0.45844640  0.49952320    -0.56900
C2          C  0.88110050  0.37337463  0.42316815     0.75700
O3          O  0.75730321  0.50318341  0.43932509    -0.58100
C4          C  0.89294005  0.50347352  0.50950072     0.75700
C5          C  0.88952829  0.52354056  0.39531931     0.78100
Cd6        Cd  0.84321415  0.46791653  0.44920289     1.37500
O7          O  0.90714176  0.40069311  0.44213160    -0.56900
O8          O  0.88346514  0.54240405  0.42418752    -0.55700
C9          C  0.73431356  0.47354378  0.45940255     0.78000
O10         O  0.86640857  0.48315556  0.38962468    -0.58100
O11         O  0.83453655  0.38539667  0.42020881    -0.56600
O12         O  0.86125466  0.53000855  0.49311392    -0.56600
O13         O  0.76175601  0.44071995  0.47437309    -0.55700
O14         O  0.89182689  0.55897308  0.05137482    -0.56900
C15         C  0.05220141  0.53983810  0.12056544     0.75700
O16         O  0.92446276  0.66140427  0.09950376    -0.58100
C17         C  0.91525450  0.52454878  0.03522741     0.75700
C18         C  0.90013314  0.52351881  0.14588430     0.78100
Cd19       Cd  0.95648619  0.57322977  0.09332584     1.37500
O20         O  0.03303522  0.51700120  0.09597371    -0.56900
O21         O  0.88205150  0.52970653  0.11691776    -0.55700
C22         C  0.95487907  0.68034542  0.07793251     0.78000
O23         O  0.93930497  0.54823484  0.15247789    -0.58100
O24         O  0.03161250  0.58167555  0.12875745    -0.56600
O25         O  0.95987055  0.51303226  0.04486404    -0.56600
O26         O  0.98614279  0.64984103  0.06393898    -0.55700
O27         O  0.44579787  0.92073817  0.03958341    -0.56900
C28         C  0.53941677  0.89169820  0.11929542     0.75700
O29         O  0.36499689  0.88933151  0.12720107    -0.58100
C30         C  0.39786712  0.92128886  0.03592271     0.75700
C31         C  0.44822068  0.76322645  0.07751100     0.78100
Cd32       Cd  0.44279062  0.86890319  0.09319452     1.37500
O33         O  0.52006446  0.91948046  0.09638809    -0.56900
O34         O  0.46540666  0.79757734  0.05828536    -0.55700
C35         C  0.38828711  0.91626362  0.14796439     0.78000
O36         O  0.42671125  0.77757183  0.10462751    -0.58100
O37         O  0.51842862  0.84982622  0.12564587    -0.56600
O38         O  0.37196303  0.89884592  0.05843571    -0.56600
O39         O  0.43611709  0.91577547  0.14583686    -0.55700
O40         O  0.29821414  0.04124549  0.40621386    -0.56900
C41         C  0.36714404  0.94046761  0.50464997     0.75700
O42         O  0.23459165  0.92179130  0.43538463    -0.58100
C43         C  0.33026485  0.06981249  0.41939737     0.75700
C44         C  0.36938422  0.91173876  0.39260549     0.78100
Cd45       Cd  0.31467953  0.96873827  0.44314293     1.37500
O46         O  0.39147007  0.95459529  0.47864940    -0.56900
O47         O  0.34784105  0.88930311  0.41713856    -0.55700
C48         C  0.20674782  0.95532593  0.44948397     0.78000
O49         O  0.36002580  0.95849839  0.38930616    -0.58100
O50         O  0.31911679  0.94270765  0.50307514    -0.56600
O51         O  0.34973960  0.05475168  0.44676272    -0.56600
O52         O  0.22907040  0.99379262  0.46034522    -0.55700
O53         O  0.50941229  0.07864086  0.05914308    -0.56900
C54         C  0.40685277  0.12517775  0.12516148     0.75700
O55         O  0.58755128  0.11945129  0.12644075    -0.58100
C56         C  0.54012042  0.10036606  0.03906361     0.75700
C57         C  0.49793717  0.25564424  0.08759305     0.78100
Cd58       Cd  0.50606912  0.14888334  0.10061954     1.37500
O59         O  0.42584396  0.10173006  0.10011476    -0.56900
O60         O  0.47246543  0.22263814  0.07279475    -0.55700
C61         C  0.56606037  0.10004936  0.15210550     0.78000
O62         O  0.52936922  0.23925975  0.10920602    -0.58100
O63         O  0.43047747  0.16325062  0.13534480    -0.56600
O64         O  0.55402393  0.14420364  0.04700954    -0.56600
O65         O  0.51927899  0.10976073  0.15610404    -0.55700
O66         O  0.54660988  0.03363563  0.50395803    -0.56900
C67         C  0.58193485  0.93703522  0.42182582     0.75700
O68         O  0.53434984  0.03912131  0.41021765    -0.58100
C69         C  0.55758810  0.07882838  0.51122279     0.75700
C70         C  0.70510536  0.01252715  0.46596475     0.78100
Cd71       Cd  0.60029976  0.03191297  0.45145329     1.37500
O72         O  0.61701058  0.96584190  0.41134506    -0.56900
O73         O  0.66775023  0.99238309  0.48106615    -0.55700
C74         C  0.54354904  0.08334655  0.39992143     0.78000
O75         O  0.69447132  0.04578690  0.44366659    -0.58100
O76         O  0.55904736  0.94879193  0.44920504    -0.56600
O77         O  0.58747772  0.10153213  0.49110723    -0.56600
O78         O  0.58208934  0.10471771  0.41201750    -0.55700
O79         O  0.97036593  0.25933724  0.13683415    -0.56900
C80         C  0.08606643  0.30323803  0.04234148     0.75700
O81         O  0.07036755  0.29465962  0.16280053    -0.58100
C82         C  0.95897843  0.30506547  0.13036049     0.75700
C83         C  0.04021811  0.15506389  0.10555556     0.78100
Cd84       Cd  0.05304169  0.26224378  0.10665804     1.37500
O85         O  0.04413894  0.31681281  0.05583379    -0.56900
O86         O  0.01213655  0.18619756  0.08976554    -0.55700
C87         C  0.11217121  0.31412509  0.15422990     0.78000
O88         O  0.07774526  0.17285352  0.12088512    -0.58100
O89         O  0.11064257  0.26806224  0.05706884    -0.56600
O90         O  0.98741767  0.32831446  0.10956429    -0.56600
O91         O  0.13167319  0.30040460  0.12646382    -0.55700
O92         O  0.07637725  0.44256615  0.44198884    -0.56900
C93         C  0.09945126  0.33020272  0.50817309     0.75700
O94         O  0.11263150  0.29603598  0.42783455    -0.58100
C95         C  0.10150149  0.46745714  0.42004827     0.75700
C96         C  0.24434549  0.40434159  0.46554429     0.78100
Cd97       Cd  0.14298850  0.37696043  0.44866167     1.37500
O98         O  0.07774059  0.36861690  0.49478580    -0.56900
O99         O  0.20545551  0.41618628  0.48314723    -0.55700
C100        C  0.10371968  0.31300271  0.39870541     0.78000
O101        O  0.23708054  0.37674535  0.44015139    -0.58100
O102        O  0.14087235  0.31498515  0.49460969    -0.56600
O103        O  0.14747033  0.45463643  0.41519291    -0.56600
O104        O  0.12484958  0.35380547  0.39021333    -0.55700
C105        C  0.90963943  0.94598569  0.50418109     0.87400
C106        C  0.92598119  0.99393925  0.03806992    -0.52900
C107        C  0.96879156  0.97745837  0.05419475     0.10300
C108        C  0.99336110  0.93007866  0.03782352     0.21200
C109        C  0.95472311  0.94623496  0.47897133    -0.53600
C110        C  0.00038325  0.93419046  0.49331359     0.10400
C111        C  0.90819581  0.90813061  0.02078565    -0.53100
C112        C  0.95055372  0.89089550  0.03674407     0.11000
H113        H  0.90554815  0.02866678  0.04475850     0.15500
H114        H  0.02802257  0.91592907  0.05063802     0.01200
H115        H  0.95140121  0.95600078  0.45251544     0.15800
H116        H  0.87498993  0.88483056  0.01741113     0.15600
C117        C  0.47536837  0.55470900  0.03367951     0.87400
C118        C  0.43168759  0.54182546  0.01036517    -0.52900
C119        C  0.43652701  0.49601154  0.99519020     0.10300
C120        C  0.48603233  0.46770433  0.00378791     0.21200
C121        C  0.47841522  0.50870211  0.05840195    -0.53600
C122        C  0.48372849  0.46306256  0.04230995     0.10400
C123        C  0.52384378  0.54967961  0.01208087    -0.53100
C124        C  0.52980841  0.50427061  0.99645465     0.11000
H125        H  0.39646420  0.56399838  0.00975593     0.15500
H126        H  0.48816487  0.43481035  0.49444787     0.01200
H127        H  0.47478229  0.51097289  0.08557434     0.15800
H128        H  0.55248672  0.57892524  0.01086989     0.15600
O129        O  0.96819729  0.34173559  0.30632910    -0.56900
C130        C  0.06220904  0.29298507  0.37918319     0.75700
O131        O  0.95375406  0.32908271  0.40272787    -0.58100
C132        C  0.93363006  0.32177103  0.28933891     0.75700
C133        C  0.96763070  0.16852935  0.34744628     0.78100
Cd134      Cd  0.96422780  0.27658709  0.35293626     1.37500
O135        O  0.03113522  0.26277826  0.39301053    -0.56900
O136        O  0.00170113  0.19680447  0.33515713    -0.55700
C137        C  0.90611171  0.33439129  0.40237877     0.78000
O138        O  0.93049485  0.19028803  0.36254657    -0.58100
O139        O  0.05066416  0.31131646  0.35057635    -0.56600
O140        O  0.91605557  0.28063363  0.30067069    -0.56600
O141        O  0.88298751  0.30873438  0.38086695    -0.55700
O142        O  0.92183770  0.39049278  0.24968953    -0.56900
C143        C  0.88180874  0.48324528  0.16817864     0.75700
O144        O  0.88400930  0.31116516  0.16577015    -0.58100
C145        C  0.91286412  0.34514453  0.25863457     0.75700
C146        C  0.75849006  0.40204149  0.21799388     0.78100
Cd147      Cd  0.86433728  0.38838043  0.20009357     1.37500
O148        O  0.90374327  0.47213131  0.19562047    -0.56900
O149        O  0.79455332  0.41923063  0.23494294    -0.55700
C150        C  0.92047258  0.33250334  0.15012067     0.78000
O151        O  0.77116642  0.37524686  0.19274025    -0.58100
O152        O  0.84809521  0.45340511  0.15821131    -0.56600
O153        O  0.88288950  0.32078221  0.24050446    -0.56600
O154        O  0.92647083  0.37895404  0.15532478    -0.55700
O155        O  0.43099916  0.91045111  0.34788953    -0.60100
C156        C  0.55136159  0.90200764  0.28778113     0.75700
O157        O  0.58183145  0.89245232  0.37054316    -0.58100
C158        C  0.40932212  0.88724109  0.37212949     0.75700
C159        C  0.50331059  0.75005312  0.32759008     0.78100
Cd160      Cd  0.50645681  0.85398486  0.34673973     1.37500
O161        O  0.50988923  0.91904694  0.30047257    -0.56900
O162        O  0.47998446  0.78485897  0.31173347    -0.55700
C163        C  0.56301401  0.89802802  0.39970120     0.78000
O164        O  0.52691827  0.76285066  0.35363012    -0.58100
O165        O  0.57106020  0.86355891  0.30207904    -0.56600
O166        O  0.42843064  0.84496108  0.38086820    -0.56600
O167        O  0.52254814  0.87471228  0.40638062    -0.55700
O168        O  0.55962876  0.96517484  0.24395745    -0.56900
C169        C  0.59112173  0.06121773  0.17288833     0.75700
O170        O  0.71094967  0.93195849  0.18616050    -0.58100
C171        C  0.57571452  0.92456272  0.25762397     0.75700
C172        C  0.57758568  0.91119177  0.14184318     0.78100
Cd173      Cd  0.62371775  0.96372638  0.19626227     1.37500
O174        O  0.63470371  0.04358317  0.16489797    -0.56900
O175        O  0.58910922  0.88810074  0.16872691    -0.55700
C176        C  0.73123883  0.96068579  0.20725198     0.78000
O177        O  0.59418960  0.95534910  0.13815200    -0.58100
O178        O  0.56685770  0.03835227  0.19617166    -0.56600
O179        O  0.61406654  0.90350246  0.24375357    -0.56600
O180        O  0.70187550  0.99198283  0.22217756    -0.55700
O181        O  0.02553638  0.50484398  0.29256637    -0.56900
C182        C  0.92901456  0.54220050  0.37244584     0.75700
O183        O  0.03008146  0.50021435  0.39200277    -0.58100
C184        C  0.07233526  0.51122969  0.28551523     0.75700
C185        C  0.02289972  0.66452642  0.32995344     0.78100
Cd186      Cd  0.02689124  0.55832448  0.34443708     1.37500
O187        O  0.94359996  0.51724135  0.34674692    -0.56900
O188        O  0.00501481  0.63142950  0.31086752    -0.55700
C189        C  0.07680811  0.50395068  0.39764174     0.78000
O190        O  0.04456332  0.64850517  0.35636692    -0.58100
O191        O  0.95582146  0.57911659  0.38102793    -0.56600
O192        O  0.09701157  0.53778011  0.30565383    -0.56600
O193        O  0.10124014  0.53621291  0.38020803    -0.55700
O194        O  0.07825948  0.45664127  0.23740563    -0.56900
C195        C  0.13128733  0.35776929  0.17198710     0.75700
O196        O  0.10504335  0.47028246  0.13764740    -0.58100
C197        C  0.09735060  0.49099118  0.25498506     0.75700
C198        C  0.25632430  0.46476480  0.19980242     0.78100
Cd199      Cd  0.14727919  0.45908786  0.19283368     1.37500
O200        O  0.10845737  0.37513691  0.19785127    -0.56900
O201        O  0.22955651  0.43457640  0.21724433    -0.55700
C202        C  0.09129860  0.51579261  0.14175708     0.78000
O203        O  0.23241572  0.49331741  0.17942286    -0.58100
O204        O  0.16595108  0.38450503  0.15886147    -0.56600
O205        O  0.13943667  0.50833101  0.24467069    -0.56600
O206        O  0.10818551  0.53726251  0.16745932    -0.55700
O207        O  0.47847986  0.08353996  0.35919069    -0.56900
C208        C  0.37969659  0.10630248  0.28867010     0.75700
O209        O  0.33434615  0.12372124  0.37142153    -0.58100
C210        C  0.50710640  0.10884711  0.37780650     0.75700
C211        C  0.43754096  0.25596301  0.33240141     0.78100
Cd212      Cd  0.41700331  0.15227051  0.34910144     1.37500
O213        O  0.41965617  0.08935798  0.30259823    -0.56900
O214        O  0.46072875  0.21878699  0.31895334    -0.55700
C215        C  0.35144379  0.11202683  0.40001456     0.78000
O216        O  0.40304663  0.24557574  0.35401437    -0.58100
O217        O  0.35874827  0.14501566  0.30176020    -0.56600
O218        O  0.49819214  0.15595419  0.37959916    -0.56600
O219        O  0.39352173  0.13065532  0.40772394    -0.55700
O220        O  0.37475748  0.04104077  0.24707174    -0.56900
C221        C  0.36187992  0.95265562  0.16974628     0.75700
O222        O  0.22563337  0.06210447  0.19074475    -0.58100
C223        C  0.35837435  0.08297404  0.25862767     0.75700
C224        C  0.36540670  0.10404830  0.14547458     0.78100
Cd225      Cd  0.31853090  0.04320834  0.19687046     1.37500
O226        O  0.31673938  0.96655650  0.16359249    -0.56900
O227        O  0.35370830  0.12230199  0.17382708    -0.55700
C228        C  0.21262869  0.02137694  0.20551278     0.78000
O229        O  0.34609299  0.06222067  0.13838086    -0.58100
O230        O  0.38509145  0.97675514  0.19214653    -0.56600
O231        O  0.32233201  0.10438865  0.24292574    -0.56600
O232        O  0.24787395  0.99378857  0.21741606    -0.55700
C233        C  0.99133818  0.87557460  0.29045359     0.87400
C234        C  0.03291487  0.89282895  0.26554872    -0.52900
C235        C  0.02506308  0.93993816  0.25174523     0.10300
C236        C  0.97486294  0.96517636  0.26395749     0.21200
C237        C  0.98780161  0.91848425  0.31660036    -0.53600
C238        C  0.97884472  0.96508247  0.30244787     0.10400
C239        C  0.94143902  0.88057153  0.27121890    -0.53100
C240        C  0.93297153  0.92692715  0.25682551     0.11000
H241        H  0.06742253  0.87046675  0.26108520     0.15500
H242        H  0.96724912  0.00313542  0.25275760     0.01200
H243        H  0.99187563  0.91374914  0.34343831     0.15800
H244        H  0.91428543  0.85004941  0.27006614     0.15600
C245        C  0.50334218  0.54501815  0.27507987     0.87400
C246        C  0.46573832  0.54059415  0.24632852    -0.52900
C247        C  0.46535166  0.49438202  0.23128354     0.10300
C248        C  0.50502040  0.45671216  0.24606896     0.21200
C249        C  0.48903519  0.50033669  0.29894879    -0.53600
C250        C  0.49056305  0.45424141  0.28354270     0.10400
C251        C  0.55512026  0.52998925  0.25995329    -0.53100
C252        C  0.55683858  0.48338488  0.24546446     0.11000
H253        H  0.43654809  0.56942549  0.24186079     0.15500
H254        H  0.50588340  0.41924461  0.23359313     0.01200
H255        H  0.47781987  0.50393718  0.32517065     0.15800
H256        H  0.58878780  0.55278295  0.26292942     0.15600
C257        C  0.12341531  0.03704058  0.22531910    -0.20400
C258        C  0.15944145  0.00565127  0.20921162    -0.08500
C259        C  0.14643338  0.95595262  0.20114136     0.30400
C260        C  0.09991335  0.93644112  0.21206794    -0.20400
C261        C  0.06606329  0.96573153  0.23194954    -0.08500
C262        C  0.07698175  0.01735184  0.23674779     0.30400
F263        F  0.04544433  0.04790277  0.25499075    -0.19000
H264        H  0.13286619  0.07560326  0.23147946     0.18800
H265        H  0.09181416  0.89728458  0.20673476     0.18800
F266        F  0.17988289  0.92546889  0.18413362    -0.19000
C267        C  0.49978837  0.31693213  0.30902863    -0.20400
C268        C  0.45123565  0.30831875  0.32302104    -0.08500
C269        C  0.41657215  0.34929395  0.32630002     0.30400
C270        C  0.43047743  0.39787074  0.31527371    -0.20400
C271        C  0.47858608  0.40570401  0.30034808    -0.08500
C272        C  0.51325933  0.36497692  0.29762513     0.30400
F273        F  0.56004288  0.37145568  0.28339973    -0.19000
H274        H  0.52723663  0.28613630  0.30637182     0.18800
H275        H  0.40286179  0.42869950  0.31666719     0.18800
F276        F  0.36850800  0.34189082  0.33818909    -0.19000
C277        C  0.33981981  0.50569238  0.18712653    -0.20400
C278        C  0.31236853  0.46699438  0.20334980    -0.08500
C279        C  0.33894812  0.43159780  0.22354439     0.30400
C280        C  0.39093480  0.43718697  0.22913666    -0.20400
C281        C  0.41716462  0.47875361  0.21559057    -0.08500
C282        C  0.39170906  0.51155077  0.19309938     0.30400
F283        F  0.41638705  0.55104273  0.17846053    -0.19000
H284        H  0.32067734  0.53284132  0.17088055     0.18800
H285        H  0.40955893  0.41092590  0.24612459     0.18800
F286        F  0.31449804  0.39275350  0.23911654    -0.19000
C287        C  0.00904517  0.73217815  0.28763793    -0.20400
C288        C  0.01786784  0.71875725  0.32119134    -0.08500
C289        C  0.01899079  0.75698085  0.34551435     0.30400
C290        C  0.01049063  0.80781740  0.33622230    -0.20400
C291        C  0.00106123  0.82126573  0.30241803    -0.08500
C292        C  0.00109209  0.78246494  0.27827387     0.30400
F293        F  0.99259930  0.79310455  0.24533320    -0.19000
H294        H  0.00813124  0.70348774  0.26838299     0.18800
H295        H  0.01145189  0.83573904  0.35562831     0.18800
F296        F  0.02663581  0.74522835  0.37837651    -0.19000
C297        C  0.85937625  0.98533799  0.24543270    -0.20400
C298        C  0.88513889  0.93937940  0.23909014    -0.08500
C299        C  0.86246021  0.90357999  0.21832964     0.30400
C300        C  0.81328655  0.91205225  0.20652087    -0.20400
C301        C  0.78580603  0.95617260  0.21527820    -0.08500
C302        C  0.80990176  0.99358154  0.23397706     0.30400
F303        F  0.78520099  0.03746626  0.24207654    -0.19000
H304        H  0.87640993  0.01395010  0.26067860     0.18800
H305        H  0.79591695  0.88297928  0.19172715     0.18800
F306        F  0.88744623  0.85994730  0.20995710    -0.19000
C307        C  0.50441440  0.68952691  0.28057574    -0.20400
C308        C  0.50397642  0.69769959  0.31529504    -0.08500
C309        C  0.50555847  0.65594268  0.33737969     0.30400
C310        C  0.50490432  0.60663408  0.32477950    -0.20400
C311        C  0.50387850  0.59811895  0.28982937    -0.08500
C312        C  0.50604046  0.64053351  0.26791442     0.30400
F313        F  0.50979657  0.63474050  0.23406364    -0.19000
H314        H  0.50491557  0.72129981  0.26310449     0.18800
H315        H  0.50655903  0.57566954  0.34263670     0.18800
F316        F  0.50697566  0.66275844  0.37112700    -0.19000
C317        C  0.66590703  0.40975686  0.20315402    -0.20400
C318        C  0.70482091  0.41541031  0.22668541    -0.08500
C319        C  0.69290274  0.43902489  0.25747718     0.30400
C320        C  0.64441832  0.45953784  0.26343300    -0.20400
C321        C  0.60644639  0.45695319  0.23908953    -0.08500
C322        C  0.61690503  0.43015193  0.20936316     0.30400
F323        F  0.58077059  0.42607716  0.18562228    -0.19000
H324        H  0.67396724  0.39152824  0.17934994     0.18800
H325        H  0.63668900  0.47828510  0.28713739     0.18800
F326        F  0.72840007  0.44355991  0.28165186    -0.19000
C327        C  0.92608793  0.08537583  0.33991599    -0.20400
C328        C  0.97076313  0.11326466  0.34290336    -0.08500
C329        C  0.01833571  0.08887305  0.33778239     0.30400
C330        C  0.02073681  0.03852370  0.32745128    -0.20400
C331        C  0.97597749  0.01231585  0.32158540    -0.08500
C332        C  0.92862554  0.03525403  0.32893858     0.30400
F333        F  0.88491221  0.01001412  0.32386843    -0.19000
H334        H  0.88911236  0.10337252  0.34389062     0.18800
H335        H  0.05754296  0.02099652  0.32185652     0.18800
F336        F  0.06238942  0.11431069  0.34134557    -0.19000
C337        C  0.35377610  0.46096475  0.01304713    -0.20400
C338        C  0.38648451  0.47131416  0.48997011    -0.08500
C339        C  0.37850032  0.45481892  0.45711823     0.30400
C340        C  0.33274251  0.43123733  0.44921539    -0.20400
C341        C  0.29494874  0.42350645  0.47419811    -0.08500
C342        C  0.30435153  0.43814986  0.50737814     0.30400
F343        F  0.27492262  0.42930537  0.03254431    -0.19000
H344        H  0.35997096  0.47537898  0.03800598     0.18800
H345        H  0.32621227  0.42047443  0.42348740     0.18800
F346        F  0.41407052  0.46304528  0.43261951    -0.19000
C347        C  0.06277921  0.06610437  0.09085146    -0.20400
C348        C  0.02842823  0.10101308  0.10529491    -0.08500
C349        C  0.97834794  0.08634599  0.11247251     0.30400
C350        C  0.96066900  0.04085860  0.10005314    -0.20400
C351        C  0.99255042  0.01001901  0.07980954    -0.08500
C352        C  0.04510258  0.02020725  0.07851224     0.30400
F353        F  0.07865582  0.99548159  0.54502048    -0.19000
H354        H  0.10198793  0.07645116  0.08601328     0.18800
H355        H  0.92062359  0.03250720  0.10320106     0.18800
F356        F  0.94530066  0.11833610  0.12858871    -0.19000
C357        C  0.80080038  0.01995046  0.46025850    -0.20400
C358        C  0.75774342  0.99617658  0.47423598    -0.08500
C359        C  0.76504328  0.95565628  0.49694480     0.30400
C360        C  0.81359989  0.93955841  0.50550038    -0.20400
C361        C  0.85727244  0.96140374  0.49086544    -0.08500
C362        C  0.85015399  0.00334565  0.46884742     0.30400
F363        F  0.88522150  0.99091031  0.93576093    -0.19000
H364        H  0.79629572  0.05192407  0.44322353     0.18800
H365        H  0.81597923  0.91096679  0.52500900     0.18800
F366        F  0.72516016  0.93148695  0.51171920    -0.19000
C367        C  0.51889145  0.34763374  0.09543231    -0.20400
C368        C  0.49102495  0.31009391  0.07927210    -0.08500
C369        C  0.45689532  0.32491730  0.05395309     0.30400
C370        C  0.45297997  0.37527188  0.04392979    -0.20400
C371        C  0.48254839  0.41243895  0.05862857    -0.08500
C372        C  0.51459990  0.39866817  0.08527856     0.30400
F373        F  0.54387751  0.43374741  0.09996332    -0.19000
H374        H  0.54509248  0.33729005  0.11527206     0.18800
H375        H  0.42767990  0.38480747  0.02350061     0.18800
F376        F  0.42839004  0.29064702  0.03778098    -0.19000
C377        C  0.06932689  0.98723114  0.47001176    -0.20400
C378        C  0.04947189  0.93892001  0.47536246    -0.08500
C379        C  0.08166329  0.91161287  0.97269128     0.30400
C380        C  0.12998911  0.90138189  0.45687205    -0.20400
C381        C  0.15132892  0.94975606  0.45435190    -0.08500
C382        C  0.11993251  0.99277983  0.45965598     0.30400
F383        F  0.13861189  0.04018955  0.45595368    -0.19000
H384        H  0.04641346  0.02068063  0.47576542     0.18800
H385        H  0.15360813  0.88527922  0.95269722     0.18800
F386        F  0.05938876  0.86614252  0.96872834    -0.19000
C387        C  0.46319432  0.61971814  0.08154399    -0.20400
C388        C  0.46823796  0.60822805  0.04710122    -0.08500
C389        C  0.46551014  0.64844706  0.02345525     0.30400
C390        C  0.45847759  0.69811945  0.03383481    -0.20400
C391        C  0.45339026  0.70956696  0.06797766    -0.08500
C392        C  0.45560502  0.66999846  0.09193616     0.30400
F393        F  0.45201677  0.68004565  0.12529961    -0.19000
H394        H  0.46506877  0.59031131  0.10070000     0.18800
H395        H  0.45676938  0.72788783  0.01488553     0.18800
F396        F  0.46950307  0.63961540  0.98991351    -0.19000
C397        C  0.91162467  0.81747383  0.06727007    -0.20400
C398        C  0.95381675  0.83843780  0.05028997    -0.08500
C399        C  0.99683305  0.80763687  0.04388011     0.30400
C400        C  0.99668840  0.75632937  0.05285618    -0.20400
C401        C  0.95430593  0.73506497  0.06936743    -0.08500
C402        C  0.91188622  0.76641800  0.07701059     0.30400
F403        F  0.87005338  0.74758606  0.09290882    -0.19000
H404        H  0.87812462  0.84062433  0.07271067     0.18800
H405        H  0.02993737  0.73316210  0.04687382     0.18800
F406        F  0.03837318  0.82642644  0.02782403    -0.19000
C407        C  0.65669170  0.44905923  0.49210642    -0.20400
C408        C  0.67875681  0.47808261  0.46608692    -0.08500
C409        C  0.64793660  0.51345777  0.44859782     0.30400
C410        C  0.59702363  0.52146284  0.45851768    -0.20400
C411        C  0.57593243  0.49375039  0.48546837    -0.08500
C412        C  0.60252858  0.44311501  0.98571177     0.30400
F413        F  0.57886558  0.40643314  0.00395309    -0.19000
H414        H  0.67200365  0.39971145  0.98270174     0.18800
H415        H  0.57448973  0.55038584  0.44591395     0.18800
F416        F  0.66723181  0.54148947  0.42271401    -0.19000
O417        O  0.84902093  0.51686815  0.99560682    -0.56900
C418        C  0.87622161  0.36297879  0.92598793     0.75700
O419        O  0.76085946  0.49815531  0.93510322    -0.58100
C420        C  0.89117174  0.50045649  0.00647391     0.75700
C421        C  0.89597154  0.51420348  0.89260325     0.78100
Cd422      Cd  0.84476369  0.46154063  0.94640385     1.37500
O423        O  0.89862314  0.38518834  0.94950674    -0.56900
O424        O  0.88249384  0.53684267  0.91920831    -0.55700
C425        C  0.73614613  0.46778841  0.95375291     0.78000
O426        O  0.87875642  0.47050727  0.88862740    -0.58100
O427        O  0.83433655  0.38201470  0.91641285    -0.56600
O428        O  0.91108351  0.46316961  0.99110399    -0.56600
O429        O  0.76185799  0.43354153  0.96867128    -0.55700
O430        O  0.95453292  0.50156976  0.55403146    -0.56900
C431        C  0.05792073  0.53358417  0.62416323     0.75700
O432        O  0.93188565  0.65648754  0.60391942    -0.58100
C433        C  0.91909502  0.52478816  0.53861049     0.75700
C434        C  0.90362637  0.52178563  0.65155470     0.78100
Cd435      Cd  0.96230824  0.56839201  0.59847644     1.37500
O436        O  0.04085264  0.51369568  0.59774418    -0.56900
O437        O  0.88557106  0.52865155  0.62263204    -0.55700
C438        C  0.96714313  0.67597716  0.58615572     0.78000
O439        O  0.94405998  0.54457314  0.65780465    -0.58100
O440        O  0.03486178  0.57266951  0.63493174    -0.56600
O441        O  0.90670100  0.56817548  0.54948442    -0.56600
O442        O  0.00091206  0.64564789  0.57471496    -0.55700
O443        O  0.44086816  0.91681663  0.53689785    -0.56900
C444        C  0.53476821  0.88792810  0.62259740     0.75700
O445        O  0.36618136  0.88939071  0.63275386    -0.58100
C446        C  0.39274246  0.92004613  0.53465449     0.75700
C447        C  0.44106338  0.76696666  0.57955219     0.78100
Cd448      Cd  0.43857850  0.87278321  0.59311280     1.37500
O449        O  0.52249927  0.91250969  0.59621270    -0.56900
O450        O  0.46175535  0.80003458  0.56083051    -0.55700
C451        C  0.38689734  0.92831920  0.64463046     0.78000
O452        O  0.41718593  0.78278495  0.60548236    -0.58100
O453        O  0.50638133  0.85194365  0.63180328    -0.56600
O454        O  0.36701815  0.90274304  0.55919663    -0.56600
O455        O  0.43081644  0.93899844  0.63371506    -0.55700
O456        O  0.30219206  0.05264620  0.91045347    -0.56900
C457        C  0.37261049  0.94469742  0.00663293     0.75700
O458        O  0.23639216  0.93671693  0.94139350    -0.58100
C459        C  0.33808556  0.07898036  0.92125061     0.75700
C460        C  0.36841613  0.92161398  0.89356278     0.78100
Cd461      Cd  0.31941962  0.97902404  0.94645526     1.37500
O462        O  0.39680544  0.96492202  0.98238745    -0.56900
O463        O  0.34769323  0.89927911  0.91840527    -0.55700
C464        C  0.21165310  0.96941040  0.95851053     0.78000
O465        O  0.36038592  0.96863723  0.89102493    -0.58100
O466        O  0.32480580  0.94381173  0.00399453    -0.56600
O467        O  0.35985227  0.06320235  0.94770204    -0.56600
O468        O  0.23669184  0.00648708  0.96897489    -0.55700
O469        O  0.50308569  0.08537865  0.56025158    -0.56900
C470        C  0.40601190  0.13336074  0.63031021     0.75700
O471        O  0.58736162  0.11690722  0.62417522    -0.58100
C472        C  0.53800770  0.10398791  0.54177673     0.75700
C473        C  0.49866910  0.25993503  0.59044098     0.78100
Cd474      Cd  0.50562045  0.15338869  0.60337513     1.37500
O475        O  0.42086641  0.11333305  0.60289016    -0.56900
O476        O  0.47355933  0.22696045  0.57541640    -0.55700
C477        C  0.56823330  0.10044778  0.65146572     0.78000
O478        O  0.53006226  0.24357761  0.61207129    -0.58100
O479        O  0.43498118  0.16549647  0.64303755    -0.56600
O480        O  0.55618442  0.14554267  0.55110863    -0.56600
O481        O  0.52340413  0.11488877  0.65849234    -0.55700
O482        O  0.55248789  0.02971847  0.00221585    -0.56900
C483        C  0.58294835  0.93549149  0.92056750     0.75700
O484        O  0.53656921  0.03814311  0.90928396    -0.58100
C485        C  0.55965139  0.07610461  0.00830430     0.75700
C486        C  0.70712237  0.01804105  0.96516468     0.78100
Cd487      Cd  0.60314460  0.03004594  0.94905073     1.37500
O488        O  0.61974185  0.96216406  0.91016075    -0.56900
O489        O  0.67109640  0.99808359  0.98175401    -0.55700
C490        C  0.54827531  0.08062599  0.89703964     0.78000
O491        O  0.69524617  0.04526658  0.93986041    -0.58100
O492        O  0.56064910  0.94837335  0.94784832    -0.56600
O493        O  0.58554432  0.10080066  0.98682851    -0.56600
O494        O  0.58823670  0.10099314  0.90786487    -0.55700
O495        O  0.96630311  0.25975015  0.63432604    -0.56900
C496        C  0.07944404  0.30511615  0.53878806     0.75700
O497        O  0.07098927  0.28694437  0.66161389    -0.58100
C498        C  0.95919889  0.30721878  0.63278433     0.75700
C499        C  0.03661636  0.15506050  0.59793607     0.78100
Cd500      Cd  0.04918257  0.26251318  0.60358228     1.37500
O501        O  0.03534149  0.31419791  0.55089959    -0.56900
O502        O  0.00229223  0.18748518  0.59118821    -0.55700
C503        C  0.11155634  0.30860511  0.65273551     0.78000
O504        O  0.07908559  0.17191390  0.60699546    -0.58100
O505        O  0.10682039  0.27388947  0.55496656    -0.56600
O506        O  0.98968839  0.33225949  0.61431413    -0.56600
O507        O  0.12828599  0.29958058  0.62342540    -0.55700
O508        O  0.08431346  0.44362272  0.94604135    -0.56900
C509        C  0.10607009  0.32769667  0.01157599     0.75700
O510        O  0.11541659  0.29346237  0.92933176    -0.58100
C511        C  0.10936143  0.46574917  0.92269137     0.75700
C512        C  0.24908336  0.39800747  0.96697695     0.78100
Cd513      Cd  0.14740031  0.37343906  0.95125292     1.37500
O514        O  0.08551001  0.36733991  0.99897380    -0.56900
O515        O  0.21055569  0.41431840  0.98327290    -0.55700
C516        C  0.10440861  0.31216158  0.90096474     0.78000
O517        O  0.24114384  0.36708690  0.94344133    -0.58100
O518        O  0.14568681  0.31045830  0.99680989    -0.56600
O519        O  0.15354993  0.44874210  0.91607366    -0.56600
O520        O  0.12396138  0.35403171  0.89325977    -0.55700
C521        C  0.91123277  0.96263971  0.00760754     0.87400
C522        C  0.92505599  0.98191192  0.53192363    -0.52900
C523        C  0.97096675  0.97090118  0.54616214     0.10300
C524        C  0.99720329  0.92319601  0.53147924     0.21200
C525        C  0.95963952  0.96343499  0.98497225    -0.53600
C526        C  0.00239039  0.94608577  0.00088126     0.10400
C527        C  0.91273154  0.89273306  0.52018623    -0.53100
C528        C  0.95757546  0.88106034  0.53539489     0.11000
H529        H  0.90244635  0.01550864  0.53817219     0.15500
H530        H  0.03433665  0.91389123  0.54306786     0.01200
H531        H  0.96212037  0.97937187  0.95987515     0.15800
H532        H  0.88297275  0.86499472  0.51846611     0.15600
C533        C  0.47096851  0.55848032  0.53727878     0.87400
C534        C  0.42726068  0.54481604  0.51418510    -0.52900
C535        C  0.43260671  0.49901366  0.49908192     0.10300
C536        C  0.48272871  0.47145012  0.50763654     0.21200
C537        C  0.47488682  0.51281862  0.56217151    -0.53600
C538        C  0.48064386  0.46715895  0.54619955     0.10400
C539        C  0.51957302  0.55396346  0.51556638    -0.53100
C540        C  0.52592091  0.50864662  0.50010755     0.11000
H541        H  0.39190643  0.56675098  0.51338364     0.15500
H542        H  0.49034195  0.43116076  0.99038538     0.01200
H543        H  0.47180514  0.51536738  0.58933969     0.15800
H544        H  0.54842723  0.58301782  0.51449951     0.15600
O545        O  0.96483320  0.33814622  0.81273617    -0.56900
C546        C  0.06298771  0.29191948  0.88143435     0.75700
O547        O  0.94800998  0.31181049  0.91177037    -0.58100
C548        C  0.93224951  0.31721841  0.79461699     0.75700
C549        C  0.96628501  0.16255496  0.85175041     0.78100
Cd550      Cd  0.96412918  0.27042345  0.85743730     1.37500
O551        O  0.03772059  0.25489660  0.89264486    -0.56900
O552        O  0.99908260  0.19047061  0.83754989    -0.55700
C553        C  0.90199418  0.32305174  0.90667241     0.78000
O554        O  0.93114229  0.18460667  0.86856580    -0.58100
O555        O  0.04561352  0.31545218  0.85599512    -0.56600
O556        O  0.91743785  0.27405810  0.80427507    -0.56600
O557        O  0.88222913  0.30395765  0.88109385    -0.55700
O558        O  0.91954527  0.38759120  0.75650108    -0.56900
C559        C  0.88398669  0.48232476  0.67406262     0.75700
O560        O  0.88323962  0.31280558  0.66773179    -0.58100
C561        C  0.91109415  0.34172158  0.76438094     0.75700
C562        C  0.75903495  0.40213905  0.72183948     0.78100
Cd563      Cd  0.86518994  0.38715786  0.70554580     1.37500
O564        O  0.90576783  0.47057245  0.70144652    -0.56900
O565        O  0.79475992  0.41797430  0.73968130    -0.55700
C566        C  0.92251344  0.33337450  0.65485614     0.78000
O567        O  0.77208595  0.37574748  0.69646888    -0.58100
O568        O  0.84940187  0.45342431  0.66422224    -0.56600
O569        O  0.88192430  0.31781756  0.74539498    -0.56600
O570        O  0.93205603  0.37764077  0.66410252    -0.55700
O571        O  0.43212026  0.92145281  0.85043532    -0.60100
C572        C  0.54502145  0.90729229  0.78765030     0.75700
O573        O  0.57906796  0.89216185  0.86908417    -0.58100
C574        C  0.40647916  0.89649258  0.87198592     0.75700
C575        C  0.49993630  0.75387518  0.82893403     0.78100
Cd576      Cd  0.50121287  0.85837594  0.84607056     1.37500
O577        O  0.49882088  0.91641787  0.79575305    -0.56900
O578        O  0.47862012  0.78789851  0.81124676    -0.55700
C579        C  0.56110026  0.89844092  0.89838552     0.78000
O580        O  0.52057577  0.76779581  0.85575432    -0.58100
O581        O  0.56924931  0.87640010  0.80615910    -0.56600
O582        O  0.42024874  0.85105145  0.87737888    -0.56600
O583        O  0.51895287  0.87824701  0.90521269    -0.55700
O584        O  0.54888892  0.96210666  0.73891780    -0.56900
C585        C  0.59287605  0.06019982  0.67116846     0.75700
O586        O  0.70602967  0.92279128  0.69248003    -0.58100
C587        C  0.57013056  0.92945439  0.75781854     0.75700
C588        C  0.57388138  0.90596391  0.64499874     0.78100
Cd589      Cd  0.62117432  0.96266025  0.69665345     1.37500
O590        O  0.63158633  0.03661925  0.65970809    -0.56900
O591        O  0.57790002  0.88830741  0.67448760    -0.55700
C592        C  0.72818880  0.95586804  0.70958029     0.78000
O593        O  0.59921405  0.94485249  0.63790440    -0.58100
O594        O  0.57217492  0.04264397  0.69776388    -0.56600
O595        O  0.61467649  0.91526021  0.74942031    -0.56600
O596        O  0.70084268  0.99272284  0.71984492    -0.55700
O597        O  0.03553734  0.49979815  0.79534376    -0.56900
C598        C  0.93665941  0.53356574  0.87085573     0.75700
O599        O  0.03861320  0.51037681  0.90044791    -0.58100
C600        C  0.08207773  0.50643291  0.78766985     0.75700
C601        C  0.03017757  0.66177525  0.83085599     0.78100
Cd602      Cd  0.03580465  0.55550439  0.84604545     1.37500
O603        O  0.95709627  0.50648138  0.84791435    -0.56900
O604        O  0.01247588  0.62825832  0.81205084    -0.55700
C605        C  0.08614004  0.50405080  0.90072685     0.78000
O606        O  0.05258788  0.64629023  0.85712788    -0.58100
O607        O  0.95831434  0.57442529  0.87797983    -0.56600
O608        O  0.10654437  0.53491046  0.80676924    -0.56600
O609        O  0.11153904  0.52723246  0.87821214    -0.55700
O610        O  0.08397558  0.45364769  0.73866324    -0.56900
C611        C  0.13238846  0.34988945  0.67226542     0.75700
O612        O  0.11794351  0.46731513  0.63691970    -0.58100
C613        C  0.10657504  0.48412282  0.75747648     0.75700
C614        C  0.26134427  0.46030573  0.69959959     0.78100
Cd615      Cd  0.15286260  0.45050358  0.69426025     1.37500
O616        O  0.10884511  0.36800326  0.69762418    -0.56900
O617        O  0.23640145  0.42730576  0.71593913    -0.55700
C618        C  0.09750763  0.50926622  0.64459898     0.78000
O619        O  0.23587850  0.48930516  0.68033155    -0.58100
O620        O  0.16989215  0.37450591  0.66098177    -0.56600
O621        O  0.15123817  0.49595876  0.74841869    -0.56600
O622        O  0.10811567  0.52652302  0.67307740    -0.55700
O623        O  0.47848259  0.08062546  0.86044946    -0.56900
C624        C  0.38229685  0.10812668  0.78788052     0.75700
O625        O  0.34282017  0.12782595  0.87100231    -0.58100
C626        C  0.51296561  0.10569673  0.87419946     0.75700
C627        C  0.44955022  0.25604682  0.83242641     0.78100
Cd628      Cd  0.42510029  0.15291986  0.84660731     1.37500
O629        O  0.42362880  0.09080386  0.79976141    -0.56900
O630        O  0.47069498  0.21956204  0.81683339    -0.55700
C631        C  0.36021887  0.11865034  0.89988884     0.78000
O632        O  0.41536264  0.24482608  0.85401667    -0.58100
O633        O  0.36308427  0.14693729  0.80186713    -0.56600
O634        O  0.51117766  0.15329450  0.87066674    -0.56600
O635        O  0.40297307  0.13701372  0.90633697    -0.55700
O636        O  0.36985259  0.04200461  0.74790198    -0.56900
C637        C  0.36075082  0.96316078  0.66751259     0.75700
O638        O  0.22062113  0.06593619  0.69121717    -0.58100
C639        C  0.35773769  0.08563758  0.75886343     0.75700
C640        C  0.36233079  0.11426999  0.64967081     0.78100
Cd641      Cd  0.31438610  0.04995776  0.69800149     1.37500
O642        O  0.31292639  0.96894541  0.66753850    -0.56900
O643        O  0.35408115  0.12874171  0.67945768    -0.55700
C644        C  0.20846261  0.02864578  0.70995880     0.78000
O645        O  0.33708018  0.07703205  0.63986236    -0.58100
O646        O  0.38569694  0.99308454  0.68532733    -0.56600
O647        O  0.32326749  0.10990351  0.74337352    -0.56600
O648        O  0.24437272  0.00454678  0.72405957    -0.55700
C649        C  0.99116396  0.87194927  0.79182724     0.87400
C650        C  0.03247044  0.89189464  0.76762986    -0.52900
C651        C  0.02288172  0.93915515  0.75455331     0.10300
C652        C  0.97145779  0.96183958  0.76669919     0.21200
C653        C  0.98532653  0.91380793  0.81860439    -0.53600
C654        C  0.97478972  0.96049223  0.80521338     0.10400
C655        C  0.94162821  0.87545872  0.77204317    -0.53100
C656        C  0.93122109  0.92216179  0.75852847     0.11000
H657        H  0.06806062  0.87130939  0.76316173     0.15500
H658        H  0.96289116  0.99999146  0.75609093     0.01200
H659        H  0.99004596  0.90869007  0.84531904     0.15800
H660        H  0.91597386  0.84377493  0.77020771     0.15600
C661        C  0.50583669  0.54785361  0.77936876     0.87400
C662        C  0.46679072  0.54331125  0.75156042    -0.52900
C663        C  0.46698461  0.49773948  0.73583898     0.10300
C664        C  0.50812338  0.46047038  0.74928090     0.21200
C665        C  0.49436685  0.50233290  0.80309350    -0.53600
C666        C  0.49637266  0.45670531  0.78714331     0.10400
C667        C  0.55728464  0.53434746  0.76288924    -0.53100
C668        C  0.55911485  0.48828618  0.74765020     0.11000
H669        H  0.43720493  0.57195925  0.74772947     0.15500
H670        H  0.50915738  0.42334574  0.73636252     0.01200
H671        H  0.48572822  0.50468830  0.82975003     0.15800
H672        H  0.59083130  0.55732954  0.76581227     0.15600
C673        C  0.11943304  0.04035356  0.73238606    -0.20400
C674        C  0.15574245  0.01145742  0.71448392    -0.08500
C675        C  0.14369864  0.96229721  0.70463325     0.30400
C676        C  0.09786422  0.94072220  0.71505330    -0.20400
C677        C  0.06337480  0.96751452  0.73593825    -0.08500
C678        C  0.07324000  0.01878219  0.74283785     0.30400
F679        F  0.04044282  0.04714707  0.76168877    -0.19000
H680        H  0.12809891  0.07847498  0.74002631     0.18800
H681        H  0.09066784  0.90188507  0.70833796     0.18800
F682        F  0.17754915  0.93422761  0.68622605    -0.19000
C683        C  0.51081951  0.31840064  0.80896220    -0.20400
C684        C  0.46410594  0.30882487  0.82528518    -0.08500
C685        C  0.43128795  0.34976859  0.83332237     0.30400
C686        C  0.44314650  0.39881009  0.82244671    -0.20400
C687        C  0.48819463  0.40751681  0.80405037    -0.08500
C688        C  0.52303492  0.36741325  0.79873286     0.30400
F689        F  0.56862488  0.37548229  0.78324888    -0.19000
H690        H  0.53754412  0.28777783  0.80356840     0.18800
H691        H  0.41608462  0.42946887  0.82692209     0.18800
F692        F  0.38660347  0.34210059  0.85005939    -0.19000
C693        C  0.34236173  0.50750298  0.69002883    -0.20400
C694        C  0.31701032  0.46533131  0.70361556    -0.08500
C695        C  0.34490755  0.42956130  0.72269632     0.30400
C696        C  0.39595422  0.43768472  0.72983050    -0.20400
C697        C  0.41999386  0.48200335  0.71881299    -0.08500
C698        C  0.39337068  0.51591800  0.69754655     0.30400
F699        F  0.41575462  0.55871280  0.68572264    -0.19000
H700        H  0.32205036  0.53533304  0.67490760     0.18800
H701        H  0.41530327  0.41108307  0.74637965     0.18800
F702        F  0.32229058  0.38794565  0.73605725    -0.19000
C703        C  0.01841877  0.72965219  0.78824058    -0.20400
C704        C  0.02390349  0.71586883  0.82208408    -0.08500
C705        C  0.01969245  0.75341490  0.84678194     0.30400
C706        C  0.00903682  0.80384538  0.83760303    -0.20400
C707        C  0.00307041  0.81782450  0.80349740    -0.08500
C708        C  0.00847019  0.77976227  0.77897228     0.30400
F709        F  0.00359165  0.79098344  0.74576474    -0.19000
H710        H  0.02160676  0.70132716  0.76873621     0.18800
H711        H  0.00528430  0.83090789  0.85748086     0.18800
F712        F  0.02380984  0.74119236  0.87987867    -0.19000
C713        C  0.85687061  0.98003284  0.74753798    -0.20400
C714        C  0.88259987  0.93397317  0.74130693    -0.08500
C715        C  0.85939585  0.89793607  0.72094539     0.30400
C716        C  0.80981807  0.90615455  0.70971525    -0.20400
C717        C  0.78265864  0.95066297  0.71808720    -0.08500
C718        C  0.80738170  0.98843181  0.73613420     0.30400
F719        F  0.78337527  0.03290561  0.74369079    -0.19000
H720        H  0.87403515  0.00886577  0.76255439     0.18800
H721        H  0.79222365  0.87694413  0.69516089     0.18800
F722        F  0.88442980  0.85459511  0.71201872    -0.19000
C723        C  0.50805221  0.69176033  0.78340403    -0.20400
C724        C  0.50198970  0.70115217  0.81776383    -0.08500
C725        C  0.49877762  0.66033394  0.84053085     0.30400
C726        C  0.49974831  0.61056390  0.82870198    -0.20400
C727        C  0.50531522  0.60087902  0.79398793    -0.08500
C728        C  0.51078908  0.64241944  0.77165643     0.30400
F729        F  0.51828442  0.63527999  0.73815035    -0.19000
H730        H  0.51164512  0.72285373  0.76556000     0.18800
H731        H  0.49675987  0.58042143  0.84703868     0.18800
F732        F  0.49352922  0.66855314  0.87406124    -0.19000
C733        C  0.66781293  0.41501440  0.70495265    -0.20400
C734        C  0.70545975  0.41681904  0.72968967    -0.08500
C735        C  0.69284274  0.43851504  0.76099106     0.30400
C736        C  0.64515912  0.46110012  0.76640824    -0.20400
C737        C  0.60856189  0.46198634  0.74109687    -0.08500
C738        C  0.61947519  0.43720101  0.71068608     0.30400
F739        F  0.58443976  0.43667989  0.68601946    -0.19000
H740        H  0.67647480  0.39842524  0.68069901     0.18800
H741        H  0.63677558  0.47821512  0.79057178     0.18800
F742        F  0.72691949  0.43890523  0.78628208    -0.19000
C743        C  0.92323984  0.08043117  0.84375683    -0.20400
C744        C  0.96838929  0.10730844  0.84748710    -0.08500
C745        C  0.01556990  0.08196405  0.84326064     0.30400
C746        C  0.01729671  0.03189595  0.83232652    -0.20400
C747        C  0.97219800  0.00700432  0.82513894    -0.08500
C748        C  0.92510486  0.03050425  0.83237763     0.30400
F749        F  0.88109938  0.00595538  0.82694548    -0.19000
H750        H  0.88654068  0.09913997  0.84740316     0.18800
H751        H  0.05393548  0.01368923  0.82720576     0.18800
F752        F  0.05988069  0.10625354  0.84842020    -0.19000
C753        C  0.34950518  0.46200544  0.51504462    -0.20400
C754        C  0.39022386  0.46807093  0.98733716    -0.08500
C755        C  0.38270535  0.44704074  0.95561736     0.30400
C756        C  0.33750484  0.42154767  0.94927103    -0.20400
C757        C  0.29997508  0.41662467  0.97470613    -0.08500
C758        C  0.30922359  0.43531990  0.00693665     0.30400
F759        F  0.26982389  0.42949913  0.53249826    -0.19000
H760        H  0.35569097  0.47347294  0.54069592     0.18800
H761        H  0.33095269  0.40757264  0.92427100     0.18800
F762        F  0.41800075  0.45279788  0.93061823    -0.19000
C763        C  0.06145723  0.06894557  0.57732214    -0.20400
C764        C  0.02652460  0.10078484  0.59425272    -0.08500
C765        C  0.97792528  0.08274292  0.60253871     0.30400
C766        C  0.96257493  0.03614315  0.59061339    -0.20400
C767        C  0.99458312  0.00767812  0.56906645    -0.08500
C768        C  0.04561641  0.02254051  0.56457853     0.30400
F769        F  0.07857978  0.98906438  0.06229579    -0.19000
H770        H  0.09935301  0.08210219  0.57109266     0.18800
H771        H  0.92375144  0.02461662  0.59561520     0.18800
F772        F  0.94382464  0.11203845  0.61989696    -0.19000
C773        C  0.80007613  0.00933822  0.95147952    -0.20400
C774        C  0.75999893  0.00857491  0.97522031    -0.08500
C775        C  0.76999895  0.99407946  0.00849655     0.30400
C776        C  0.81904452  0.98079421  0.01776647    -0.20400
C777        C  0.85977226  0.98038149  0.99425591    -0.08500
C778        C  0.84947195  0.99431594  0.96055188     0.30400
F779        F  0.89054596  0.02957637  0.45663030    -0.19000
H780        H  0.79264950  0.01908366  0.92546933     0.18800
H781        H  0.82518621  0.96952561  0.04369447     0.18800
F782        F  0.73221135  0.99191622  0.03219475    -0.19000
C783        C  0.51773246  0.35215555  0.59908865    -0.20400
C784        C  0.49100613  0.31429620  0.58242634    -0.08500
C785        C  0.45665940  0.32873809  0.55716327     0.30400
C786        C  0.45153576  0.37909892  0.54756047    -0.20400
C787        C  0.48020615  0.41663397  0.56258441    -0.08500
C788        C  0.51221623  0.40326321  0.58935216     0.30400
F789        F  0.54031486  0.43880794  0.60454973    -0.19000
H790        H  0.54385562  0.34207030  0.61899147     0.18800
H791        H  0.42613974  0.38836886  0.52723318     0.18800
F792        F  0.42895458  0.29416770  0.54065709    -0.19000
C793        C  0.07722645  0.99960017  0.98915457    -0.20400
C794        C  0.05406223  0.95248325  0.98657048    -0.08500
C795        C  0.07928230  0.89596532  0.46749956     0.30400
C796        C  0.13266208  0.91753331  0.96273824    -0.20400
C797        C  0.15672092  0.96429632  0.96662764    -0.08500
C798        C  0.12817737  0.00553587  0.97961576     0.30400
F799        F  0.14953547  0.05151688  0.98351940    -0.19000
H800        H  0.05615322  0.03152043  0.99970154     0.18800
H801        H  0.15321751  0.86779488  0.45240387     0.18800
F802        F  0.05974715  0.84893313  0.47093554    -0.19000
C803        C  0.45269617  0.62322070  0.58460645    -0.20400
C804        C  0.46275738  0.61186038  0.55052479    -0.08500
C805        C  0.46260831  0.65195808  0.52679416     0.30400
C806        C  0.45450846  0.70153099  0.53678840    -0.20400
C807        C  0.44534928  0.71309278  0.57057601    -0.08500
C808        C  0.44362013  0.67354081  0.59457675     0.30400
F809        F  0.43460266  0.68356076  0.62757378    -0.19000
H810        H  0.45123138  0.59368564  0.60365772     0.18800
H811        H  0.45543134  0.73120669  0.51775973     0.18800
F812        F  0.47046620  0.64318561  0.49350016    -0.19000
C813        C  0.92286482  0.81132243  0.57135845    -0.20400
C814        C  0.96455172  0.83181442  0.55351806    -0.08500
C815        C  0.00972162  0.80274570  0.55075741     0.30400
C816        C  0.01102544  0.75248225  0.56252245    -0.20400
C817        C  0.96785574  0.73088461  0.57801973    -0.08500
C818        C  0.92434526  0.76159586  0.58352301     0.30400
F819        F  0.88209380  0.74299238  0.59904385    -0.19000
H820        H  0.88812566  0.83342873  0.57494992     0.18800
H821        H  0.04541973  0.72999156  0.55863528     0.18800
F822        F  0.05170826  0.82157531  0.53521754    -0.19000
C823        C  0.65332088  0.43507404  0.97584264    -0.20400
C824        C  0.68051949  0.47332342  0.95898349    -0.08500
C825        C  0.65481155  0.51842777  0.94977530     0.30400
C826        C  0.60431622  0.52668244  0.95997874    -0.20400
C827        C  0.57836067  0.49009866  0.97921287    -0.08500
C828        C  0.60589124  0.45684327  0.50177972     0.30400
F829        F  0.58741475  0.43110884  0.52888685    -0.19000
H830        H  0.67937555  0.42179024  0.50607990     0.18800
H831        H  0.58615939  0.56273205  0.95413760     0.18800
F832        F  0.67918664  0.55599315  0.93278574    -0.19000
loop_ 
_geom_bond_atom_site_label_1 
_geom_bond_atom_site_label_2 
_geom_bond_distance 
_geom_bond_site_symmetry_2 
_ccdc_geom_bond_type 
O1            C4   1.268       .  A
O1           Cd6   2.528       .  S
C2           O11   1.266       .  A
C2            O7   1.266       .  A
C2          C137   1.467       .  S
O3            C9   1.265       .  A
O3           Cd6   2.463       .  S
C4           O12   1.264       .  A
C4          C433   1.477       .  S
C5           O10   1.260       .  A
C5            O8   1.263       .  A
C5          C182   1.457       .  S
Cd6          O13   2.462       .  S
Cd6          O12   2.465       .  S
Cd6          O11   2.491       .  S
Cd6           O7   2.438       .  S
Cd6          O10   2.467       .  S
Cd6           O8   2.443       .  S
C9           O13   1.268       .  A
C9          C408   1.482       .  S
O14          C17   1.264       .  A
O14         Cd19   2.438       .  S
C15          O24   1.265       .  A
C15          O20   1.270       .  A
C15         C202   1.471       .  S
O16          C22   1.267       .  A
O16         Cd19   2.475       .  S
C17          O25   1.270       .  A
C17         C420   1.472       .  S
C18          O23   1.260       .  A
C18          O21   1.262       .  A
C18         C143   1.460       .  S
Cd19         O26   2.457       .  S
Cd19         O25   2.510       .  S
Cd19         O24   2.459   1_655  S
Cd19         O20   2.482   1_655  S
Cd19         O23   2.473       .  S
Cd19         O21   2.452       .  S
C22          O26   1.267       .  A
C22         C401   1.481       .  S
O27          C30   1.270       .  A
O27         Cd32   2.522       .  S
C28          O37   1.265       .  A
C28          O33   1.271       .  A
C28         C172   1.460       .  S
O29          C35   1.267       .  A
O29         Cd32   2.486       .  S
C30          O38   1.264       .  A
C30         C457   1.475       .  S
C31          O36   1.267       .  A
C31          O34   1.264       .  A
C31         C391   1.474       .  S
Cd32         O39   2.445       .  S
Cd32         O38   2.452       .  S
Cd32         O37   2.431       .  S
Cd32         O33   2.454       .  S
Cd32         O36   2.491       .  S
Cd32         O34   2.411       .  S
C35          O39   1.258       .  A
C35         C221   1.459       .  S
O40          C43   1.264       .  A
O40         Cd45   2.438   1_545  S
C41          O50   1.265       .  A
C41          O46   1.263       .  A
C41         C446   1.473       .  S
O42          C48   1.268       .  A
O42         Cd45   2.485       .  S
C43          O51   1.268       .  A
C43         C215   1.461       .  S
C44          O49   1.260       .  A
C44          O47   1.266       .  A
C44         C158   1.463       .  S
Cd45         O52   2.423       .  S
Cd45         O51   2.471   1_565  S
Cd45         O50   2.478       .  S
Cd45         O46   2.503       .  S
Cd45         O49   2.448       .  S
Cd45         O47   2.486       .  S
C48          O52   1.265       .  A
C48         C381   1.475       .  S
O53          C56   1.265       .  A
O53         Cd58   2.494       .  S
C54          O63   1.264       .  A
C54          O59   1.269       .  A
C54         C224   1.460       .  S
O55          C61   1.266       .  A
O55         Cd58   2.499       .  S
C56          O64   1.264       .  A
C56         C485   1.468       .  S
C57          O62   1.270       .  A
C57          O60   1.264       .  A
C57         C368   1.480       .  S
Cd58         O65   2.454       .  S
Cd58         O64   2.461       .  S
Cd58         O63   2.426       .  S
Cd58         O59   2.466       .  S
Cd58         O62   2.501       .  S
Cd58         O60   2.393       .  S
C61          O65   1.259       .  A
C61         C169   1.465       .  S
O66          C69   1.269       .  A
O66         Cd71   2.500       .  S
C67          O76   1.274       .  A
C67          O72   1.267       .  A
C67         C163   1.460       .  S
O68          C74   1.259       .  A
O68         Cd71   2.410       .  S
C69          O77   1.265       .  A
C69         C472   1.472       .  S
C70          O75   1.273       .  A
C70          O73   1.264   1_545  A
C70         C358   1.483   1_545  S
Cd71         O78   2.513       .  S
Cd71         O77   2.449       .  S
Cd71         O76   2.467   1_545  S
Cd71         O72   2.406   1_545  S
Cd71         O75   2.520       .  S
Cd71         O73   2.366   1_545  S
C74          O78   1.271       .  A
C74         C210   1.462       .  S
O79          C82   1.264       .  A
O79         Cd84   2.465   1_655  S
C80          O89   1.266       .  A
C80          O85   1.265       .  A
C80         C509   1.471       .  S
O81          C87   1.260       .  A
O81         Cd84   2.452       .  S
C82          O90   1.266       .  A
C82         C150   1.458       .  S
C83          O88   1.267       .  A
C83          O86   1.264       .  A
C83         C348   1.465       .  S
Cd84         O91   2.458       .  S
Cd84         O90   2.434   1_455  S
Cd84         O89   2.470       .  S
Cd84         O85   2.482       .  S
Cd84         O88   2.499       .  S
Cd84         O86   2.400       .  S
C87          O91   1.263       .  A
C87         C195   1.458       .  S
O92          C95   1.270       .  A
O92         Cd97   2.457       .  S
C93         O102   1.267       .  A
C93          O98   1.272       .  A
C93         C496   1.473       .  S
O94         C100   1.262       .  A
O94         Cd97   2.450       .  S
C95         O103   1.261       .  A
C95         C189   1.457       .  S
C96         O101   1.270       .  A
C96          O99   1.265       .  A
C96         C341   1.478       .  S
Cd97        O104   2.466       .  S
Cd97        O103   2.436       .  S
Cd97        O102   2.441       .  S
Cd97         O98   2.500       .  S
Cd97        O101   2.489       .  S
Cd97         O99   2.410       .  S
C100        O104   1.260       .  A
C100        C130   1.459       .  S
C105        C109   1.539       .  S
C105        C522   1.527       .  S
C105        C527   1.539       .  S
C105        C361   1.530       .  S
C106        C521   1.532       .  S
C106        H113   1.088   1_565  S
C106        C107   1.367       .  D
C107        C108   1.543       .  S
C107        C351   1.491   1_565  S
C108        C112   1.542       .  S
C108        C526   1.540   1_655  S
C108        H114   1.109   1_655  S
C109        H115   1.085       .  S
C109        C110   1.368   1_655  D
C110        C524   1.544   1_455  S
C110        C378   1.470       .  S
C111        C521   1.529       .  S
C111        H116   1.087       .  S
C111        C112   1.360       .  D
C112        C398   1.482       .  S
C117        C118   1.532       .  S
C117        C123   1.529       .  S
C117        C121   1.556       .  S
C117        C388   1.523       .  S
C118        H125   1.087       .  S
C118        C119   1.360   1_554  D
C119        C120   1.531   1_556  S
C119        C754   1.473       .  S
C120        C124   1.536   1_554  S
C120        C122   1.536       .  S
C120        H542   1.110   1_554  S
C121        H127   1.085       .  S
C121        C122   1.374       .  D
C122        C371   1.480       .  S
C123        H128   1.087       .  S
C123        C124   1.361   1_554  D
C124        C827   1.482       .  S
H126        C536   1.111       .  S
O129        C132   1.266       .  A
O129       Cd134   2.517       .  S
C130        O139   1.271       .  A
C130        O135   1.266       .  A
O131        C137   1.257       .  A
O131       Cd134   2.438       .  S
C132        O140   1.263       .  A
C132        C145   1.471       .  S
C133        O138   1.269       .  A
C133        O136   1.264   1_655  A
C133        C328   1.473       .  S
Cd134       O141   2.527       .  S
Cd134       O140   2.452       .  S
Cd134       O139   2.463   1_655  S
Cd134       O135   2.413   1_655  S
Cd134       O138   2.482       .  S
Cd134       O136   2.417   1_655  S
C137        O141   1.266       .  A
O142        C145   1.270       .  A
O142       Cd147   2.506       .  S
C143        O152   1.266       .  A
C143        O148   1.272       .  A
O144        C150   1.270       .  A
O144       Cd147   2.507       .  S
C145        O153   1.265       .  A
C146        O151   1.271       .  A
C146        O149   1.265       .  A
C146        C318   1.484       .  S
Cd147       O154   2.407       .  S
Cd147       O153   2.438       .  S
Cd147       O152   2.417       .  S
Cd147       O148   2.460       .  S
Cd147       O151   2.500       .  S
Cd147       O149   2.415       .  S
C150        O154   1.259       .  A
O155        C158   1.269       .  A
O155       Cd160   2.460       .  S
C156        O165   1.266       .  A
C156        O161   1.270       .  A
C156        C171   1.474       .  S
O157        C163   1.262       .  A
O157       Cd160   2.449       .  S
C158        O166   1.264       .  A
C159        O164   1.268       .  A
C159        O162   1.265       .  A
C159        C308   1.470       .  S
Cd160       O167   2.485       .  S
Cd160       O166   2.453       .  S
Cd160       O165   2.450       .  S
Cd160       O161   2.505       .  S
Cd160       O164   2.470       .  S
Cd160       O162   2.425       .  S
C163        O167   1.260       .  A
O168        C171   1.266       .  A
O168       Cd173   2.515       .  S
C169        O178   1.269       .  A
C169        O174   1.265       .  A
O170        C176   1.267       .  A
O170       Cd173   2.455       .  S
C171        O179   1.264       .  A
C172        O177   1.258       .  A
C172        O175   1.264       .  A
Cd173       O180   2.444       .  S
Cd173       O179   2.469       .  S
Cd173       O178   2.452   1_565  S
Cd173       O174   2.457   1_565  S
Cd173       O177   2.464       .  S
Cd173       O175   2.480       .  S
C176        O180   1.266       .  A
C176        C301   1.477       .  S
O181        C184   1.270       .  A
O181       Cd186   2.513       .  S
C182        O191   1.265       .  A
C182        O187   1.272       .  A
O183        C189   1.257       .  A
O183       Cd186   2.425       .  S
C184        O192   1.264       .  A
C184        C197   1.472       .  S
C185        O190   1.269       .  A
C185        O188   1.265       .  A
C185        C288   1.474       .  S
Cd186       O193   2.494       .  S
Cd186       O192   2.440       .  S
Cd186       O191   2.407   1_455  S
Cd186       O187   2.458   1_455  S
Cd186       O190   2.485       .  S
Cd186       O188   2.403       .  S
C189        O193   1.268       .  A
O194        C197   1.266       .  A
O194       Cd199   2.515       .  S
C195        O204   1.264       .  A
C195        O200   1.268       .  A
O196        C202   1.260       .  A
O196       Cd199   2.489       .  S
C197        O205   1.264       .  A
C198        O203   1.268       .  A
C198        O201   1.265       .  A
C198        C278   1.484       .  S
Cd199       O206   2.500       .  S
Cd199       O205   2.452       .  S
Cd199       O204   2.438       .  S
Cd199       O200   2.460       .  S
Cd199       O203   2.474       .  S
Cd199       O201   2.459       .  S
C202        O206   1.264       .  A
O207        C210   1.267       .  A
O207       Cd212   2.443       .  S
C208        O217   1.265       .  A
C208        O213   1.268       .  A
C208        C223   1.473       .  S
O209        C215   1.263       .  A
O209       Cd212   2.459       .  S
C210        O218   1.264       .  A
C211        O216   1.270       .  A
C211        O214   1.265       .  A
C211        C268   1.477       .  S
Cd212       O219   2.465       .  S
Cd212       O218   2.475       .  S
Cd212       O217   2.457       .  S
Cd212       O213   2.498       .  S
Cd212       O216   2.493       .  S
Cd212       O214   2.412       .  S
C215        O219   1.261       .  A
O220        C223   1.269       .  A
O220       Cd225   2.503       .  S
C221        O230   1.270       .  A
C221        O226   1.263       .  A
O222        C228   1.269       .  A
O222       Cd225   2.498       .  S
C223        O231   1.265       .  A
C224        O229   1.260       .  A
C224        O227   1.262       .  A
Cd225       O232   2.413   1_545  S
Cd225       O231   2.459       .  S
Cd225       O230   2.462   1_545  S
Cd225       O226   2.431   1_545  S
Cd225       O229   2.473       .  S
Cd225       O227   2.460       .  S
C228        O232   1.264   1_545  A
C228        C258   1.469       .  S
C233        C234   1.534   1_655  S
C233        C239   1.532       .  S
C233        C237   1.546       .  S
C233        C291   1.525   1_655  S
C234        H241   1.087       .  S
C234        C235   1.368       .  D
C235        C236   1.541   1_455  S
C235        C261   1.493       .  S
C236        C240   1.538       .  S
C236        C238   1.536       .  S
C236        H242   1.109   1_565  S
C237        H243   1.080       .  S
C237        C238   1.366       .  D
C238        C331   1.468   1_565  S
C239        H244   1.087       .  S
C239        C240   1.362       .  D
C240        C298   1.482       .  S
C245        C246   1.530       .  S
C245        C251   1.526       .  S
C245        C249   1.553       .  S
C245        C311   1.526       .  S
C246        H253   1.087       .  S
C246        C247   1.365       .  D
C247        C248   1.547       .  S
C247        C281   1.487       .  S
C248        C252   1.543       .  S
C248        C250   1.533       .  S
C248        H254   1.111       .  S
C249        H255   1.084       .  S
C249        C250   1.368       .  D
C250        C271   1.475       .  S
C251        H256   1.087       .  S
C251        C252   1.364       .  D
C252        C321   1.487       .  S
C257        C258   1.399       .  A
C257        C262   1.401       .  A
C257        H264   1.083       .  S
C258        C259   1.403   1_545  A
C259        C260   1.395       .  A
C259        F266   1.358       .  S
C260        C261   1.407       .  A
C260        H265   1.083       .  S
C261        C262   1.413   1_565  A
C262        F263   1.354       .  S
C267        C268   1.404       .  A
C267        C272   1.392       .  A
C267        H274   1.082       .  S
C268        C269   1.408       .  A
C269        C270   1.403       .  A
C269        F276   1.357       .  S
C270        C271   1.405       .  A
C270        H275   1.082       .  S
C271        C272   1.401       .  A
C272        F273   1.357       .  S
C277        C278   1.405       .  A
C277        C282   1.399       .  A
C277        H284   1.083       .  S
C278        C279   1.410       .  A
C279        C280   1.398       .  A
C279        F286   1.358       .  S
C280        C281   1.403       .  A
C280        H285   1.080       .  S
C281        C282   1.408       .  A
C282        F283   1.358       .  S
C287        C288   1.399       .  A
C287        C292   1.388       .  A
C287        H294   1.083       .  S
C288        C289   1.406       .  A
C289        C290   1.403       .  A
C289        F296   1.358       .  S
C290        C291   1.412       .  A
C290        H295   1.074       .  S
C291        C292   1.411       .  A
C292        F293   1.358   1_455  S
C297        C298   1.402       .  A
C297        C302   1.397       .  A
C297        H304   1.081   1_565  S
C298        C299   1.408       .  A
C299        C300   1.396       .  A
C299        F306   1.358       .  S
C300        C301   1.404       .  A
C300        H305   1.083       .  S
C301        C302   1.408       .  A
C302        F303   1.357   1_565  S
C307        C308   1.400       .  A
C307        C312   1.392       .  A
C307        H314   1.084       .  S
C308        C309   1.403       .  A
C309        C310   1.400       .  A
C309        F316   1.357       .  S
C310        C311   1.411       .  A
C310        H315   1.078       .  S
C311        C312   1.413       .  A
C312        F313   1.358       .  S
C317        C318   1.408       .  A
C317        C322   1.406       .  A
C317        H324   1.083       .  S
C318        C319   1.408       .  A
C319        C320   1.393       .  A
C319        F326   1.358       .  S
C320        C321   1.405       .  A
C320        H325   1.084       .  S
C321        C322   1.405       .  A
C322        F323   1.357       .  S
C327        C328   1.403       .  A
C327        C332   1.398       .  A
C327        H334   1.084       .  S
C328        C329   1.409   1_655  A
C329        C330   1.395       .  A
C329        F336   1.358       .  S
C330        C331   1.398   1_455  A
C330        H335   1.086       .  S
C331        C332   1.402       .  A
C332        F333   1.356       .  S
C337        C754   1.402   1_554  A
C337        C758   1.388       .  A
C337        H344   1.083       .  S
C338        C535   1.478       .  S
C338        C339   1.402       .  A
C338        C753   1.403       .  A
C339        C340   1.405       .  A
C339        F346   1.357       .  S
C340        C341   1.408       .  A
C340        H345   1.082       .  S
C341        C342   1.406       .  A
C342        C753   1.392       .  A
C342        F759   1.358       .  S
F343        C758   1.358       .  S
C347        C348   1.400       .  A
C347        C352   1.401       .  A
C347        H354   1.084       .  S
C348        C349   1.402   1_455  A
C349        C350   1.393       .  A
C349        F356   1.358       .  S
C350        C351   1.407       .  A
C350        H355   1.083       .  S
C351        C352   1.411   1_655  A
C352        F769   1.354   1_545  S
F353        C768   1.355   1_565  S
C357        C358   1.406   1_545  A
C357        C362   1.408       .  A
C357        H364   1.083       .  S
C358        C359   1.406       .  A
C359        C360   1.385       .  A
C359        F366   1.358       .  S
C360        C361   1.407       .  A
C360        H365   1.079       .  S
C361        C362   1.416   1_565  A
C362        F779   1.357       .  S
F363        C778   1.353       .  S
C367        C368   1.409       .  A
C367        C372   1.406       .  A
C367        H374   1.086       .  S
C368        C369   1.408       .  A
C369        C370   1.386       .  A
C369        F376   1.358       .  S
C370        C371   1.400       .  A
C370        H375   1.083       .  S
C371        C372   1.406       .  A
C372        F373   1.357       .  S
C377        C378   1.399       .  A
C377        C382   1.395       .  A
C377        H384   1.084   1_565  S
C378        C795   1.402       .  A
C379        C794   1.402       .  A
C379        C796   1.401       .  A
C379        F386   1.356       .  S
C380        C381   1.405       .  A
C380        C795   1.400       .  A
C380        H801   1.082       .  S
C381        C382   1.408       .  A
C382        F383   1.358   1_565  S
H385        C796   1.082       .  S
C387        C388   1.410       .  A
C387        C392   1.404       .  A
C387        H394   1.083       .  S
C388        C389   1.413       .  A
C389        C390   1.387       .  A
C389        F396   1.359   1_554  S
C390        C391   1.398       .  A
C390        H395   1.084       .  S
C391        C392   1.408       .  A
C392        F393   1.357       .  S
C397        C398   1.406       .  A
C397        C402   1.398       .  A
C397        H404   1.083       .  S
C398        C399   1.402       .  A
C399        C400   1.397       .  A
C399        F406   1.354   1_655  S
C400        C401   1.405       .  A
C400        H405   1.082   1_655  S
C401        C402   1.408       .  A
C402        F403   1.358       .  S
C407        C408   1.404       .  A
C407        C828   1.395       .  A
C407        H830   1.082       .  S
C408        C409   1.411       .  A
C409        C410   1.401       .  A
C409        F416   1.358       .  S
C410        C411   1.403       .  A
C410        H415   1.082       .  S
C411        C540   1.477       .  S
C411        C828   1.403       .  A
C412        C823   1.398       .  A
C412        C827   1.407       .  A
C412        F413   1.357   1_556  S
H414        C823   1.082       .  S
O417        C420   1.264   1_556  A
O417       Cd422   2.459       .  S
C418        O427   1.265       .  A
C418        O423   1.268       .  A
C418        C553   1.461       .  S
O419        C425   1.266       .  A
O419       Cd422   2.439       .  S
C420        O428   1.265   1_554  A
C421        O426   1.258       .  A
C421        O424   1.263       .  A
C421        C598   1.459       .  S
Cd422       O429   2.459       .  S
Cd422       O428   2.511       .  S
Cd422       O427   2.447       .  S
Cd422       O423   2.446       .  S
Cd422       O426   2.462       .  S
Cd422       O424   2.468       .  S
C425        O429   1.268       .  A
C425        C824   1.478       .  S
O430        C433   1.269       .  A
O430       Cd435   2.523       .  S
C431        O440   1.263       .  A
C431        O436   1.271       .  A
C431        C618   1.466       .  S
O432        C438   1.268       .  A
O432       Cd435   2.457       .  S
C433        O441   1.264       .  A
C434        O439   1.259       .  A
C434        O437   1.262       .  A
C434        C559   1.461       .  S
Cd435       O442   2.465   1_655  S
Cd435       O441   2.455       .  S
Cd435       O440   2.419   1_655  S
Cd435       O436   2.498   1_655  S
Cd435       O439   2.477       .  S
Cd435       O437   2.464       .  S
C438        O442   1.267   1_655  A
C438        C817   1.482       .  S
O443        C446   1.270       .  A
O443       Cd448   2.509       .  S
C444        O453   1.265       .  A
C444        O449   1.271       .  A
C444        C588   1.460       .  S
O445        C451   1.270       .  A
O445       Cd448   2.486       .  S
C446        O454   1.264       .  A
C447        O452   1.269       .  A
C447        O450   1.265       .  A
C447        C807   1.472       .  S
Cd448       O455   2.396       .  S
Cd448       O454   2.448       .  S
Cd448       O453   2.426       .  S
Cd448       O449   2.463       .  S
Cd448       O452   2.493       .  S
Cd448       O450   2.386       .  S
C451        O455   1.261       .  A
C451        C637   1.456       .  S
O456        C459   1.264       .  A
O456       Cd461   2.443   1_545  S
C457        O466   1.263       .  A
C457        O462   1.264   1_554  A
O458        C464   1.268       .  A
O458       Cd461   2.479       .  S
C459        O467   1.269       .  A
C459        C631   1.463       .  S
C460        O465   1.259       .  A
C460        O463   1.265       .  A
C460        C574   1.462       .  S
Cd461       O468   2.438   1_565  S
Cd461       O467   2.480   1_565  S
Cd461       O466   2.466   1_556  S
Cd461       O462   2.525       .  S
Cd461       O465   2.453       .  S
Cd461       O463   2.489       .  S
C464        O468   1.266   1_565  A
C464        C797   1.481       .  S
O469        C472   1.268       .  A
O469       Cd474   2.498       .  S
C470        O479   1.264       .  A
C470        O475   1.269       .  A
C470        C640   1.465       .  S
O471        C477   1.264       .  A
O471       Cd474   2.489       .  S
C472        O480   1.265       .  A
C473        O478   1.269       .  A
C473        O476   1.262       .  A
C473        C784   1.478       .  S
Cd474       O481   2.455       .  S
Cd474       O480   2.456       .  S
Cd474       O479   2.434       .  S
Cd474       O475   2.481       .  S
Cd474       O478   2.505       .  S
Cd474       O476   2.377       .  S
C477        O481   1.259       .  A
C477        C585   1.462       .  S
O482        C485   1.268       .  A
O482       Cd487   2.479   1_554  S
C483        O492   1.271       .  A
C483        O488   1.267       .  A
C483        C579   1.455       .  S
O484        C490   1.259       .  A
O484       Cd487   2.383       .  S
C485        O493   1.265   1_554  A
C486        O491   1.271       .  A
C486        O489   1.264   1_545  A
C486        C774   1.469       .  S
Cd487       O494   2.505       .  S
Cd487       O493   2.442       .  S
Cd487       O492   2.446   1_545  S
Cd487       O488   2.409   1_545  S
Cd487       O491   2.480       .  S
Cd487       O489   2.366   1_545  S
C490        O494   1.271       .  A
C490        C626   1.456       .  S
O495        C498   1.265       .  A
O495       Cd500   2.481   1_655  S
C496        O505   1.263       .  A
C496        O501   1.267       .  A
O497        C503   1.261       .  A
O497       Cd500   2.482       .  S
C498        O506   1.267       .  A
C498        C566   1.462       .  S
C499        O504   1.267       .  A
C499        O502   1.263       .  A
C499        C764   1.471       .  S
Cd500       O507   2.457       .  S
Cd500       O506   2.431   1_455  S
Cd500       O505   2.455       .  S
Cd500       O501   2.517       .  S
Cd500       O504   2.508       .  S
Cd500       O502   2.410       .  S
C503        O507   1.262       .  A
C503        C611   1.464       .  S
O508        C511   1.272       .  A
O508       Cd513   2.474       .  S
C509        O518   1.266   1_554  A
C509        O514   1.272   1_554  A
O510        C516   1.263       .  A
O510       Cd513   2.459       .  S
C511        O519   1.262       .  A
C511        C605   1.462       .  S
C512        O517   1.270       .  A
C512        O515   1.264       .  A
C512        C757   1.471       .  S
Cd513       O520   2.459       .  S
Cd513       O519   2.425       .  S
Cd513       O518   2.447       .  S
Cd513       O514   2.484       .  S
Cd513       O517   2.480       .  S
Cd513       O515   2.387       .  S
C516        O520   1.259       .  A
C516        C546   1.459       .  S
C521        C525   1.546   1_554  S
C521        C777   1.525   1_554  S
C522        H529   1.088   1_565  S
C522        C523   1.367       .  D
C523        C524   1.541       .  S
C523        C767   1.488   1_565  S
C524        C528   1.541       .  S
C524        H530   1.109   1_655  S
C525        H531   1.080       .  S
C525        C526   1.368   1_656  D
C526        C794   1.475   1_554  S
C527        H532   1.084       .  S
C527        C528   1.363       .  D
C528        C814   1.490       .  S
C533        C534   1.533       .  S
C533        C539   1.533       .  S
C533        C537   1.555       .  S
C533        C804   1.520       .  S
C534        H541   1.087       .  S
C534        C535   1.360       .  D
C535        C536   1.535       .  S
C536        C540   1.537       .  S
C536        C538   1.537       .  S
C537        H543   1.085       .  S
C537        C538   1.373       .  D
C538        C787   1.478       .  S
C539        H544   1.087       .  S
C539        C540   1.357       .  D
O545        C548   1.266       .  A
O545       Cd550   2.508       .  S
C546        O555   1.269       .  A
C546        O551   1.264       .  A
O547        C553   1.259       .  A
O547       Cd550   2.459       .  S
C548        O556   1.264       .  A
C548        C561   1.472       .  S
C549        O554   1.268       .  A
C549        O552   1.265       .  A
C549        C744   1.470       .  S
Cd550       O557   2.486       .  S
Cd550       O556   2.463       .  S
Cd550       O555   2.465   1_655  S
Cd550       O551   2.433   1_655  S
Cd550       O554   2.472       .  S
Cd550       O552   2.422       .  S
C553        O557   1.263       .  A
O558        C561   1.270       .  A
O558       Cd563   2.499       .  S
C559        O568   1.266       .  A
C559        O564   1.272       .  A
O560        C566   1.271       .  A
O560       Cd563   2.519       .  S
C561        O569   1.265       .  A
C562        O567   1.271       .  A
C562        O565   1.265       .  A
C562        C734   1.483       .  S
Cd563       O570   2.400       .  S
Cd563       O569   2.448       .  S
Cd563       O568   2.423       .  S
Cd563       O564   2.465       .  S
Cd563       O567   2.502       .  S
Cd563       O565   2.411       .  S
C566        O570   1.259       .  A
O571        C574   1.267       .  A
O571       Cd576   2.448       .  S
C572        O581   1.264       .  A
C572        O577   1.270       .  A
C572        C587   1.469       .  S
O573        C579   1.261       .  A
O573       Cd576   2.441       .  S
C574        O582   1.264       .  A
C575        O580   1.265       .  A
C575        O578   1.264       .  A
C575        C724   1.465       .  S
Cd576       O583   2.469       .  S
Cd576       O582   2.456       .  S
Cd576       O581   2.420       .  S
Cd576       O577   2.509       .  S
Cd576       O580   2.464       .  S
Cd576       O578   2.419       .  S
C579        O583   1.261       .  A
O584        C587   1.266       .  A
O584       Cd589   2.515       .  S
C585        O594   1.268       .  A
C585        O590   1.264       .  A
O586        C592   1.268       .  A
O586       Cd589   2.453       .  S
C587        O595   1.263       .  A
C588        O593   1.260       .  A
C588        O591   1.263       .  A
Cd589       O596   2.449       .  S
Cd589       O595   2.437       .  S
Cd589       O594   2.455   1_565  S
Cd589       O590   2.447   1_565  S
Cd589       O593   2.468       .  S
Cd589       O591   2.463       .  S
C592        O596   1.267       .  A
C592        C717   1.480       .  S
O597        C600   1.270       .  A
O597       Cd602   2.508       .  S
C598        O607   1.265       .  A
C598        O603   1.271       .  A
O599        C605   1.257       .  A
O599       Cd602   2.461       .  S
C600        O608   1.265       .  A
C600        C613   1.476       .  S
C601        O606   1.269       .  A
C601        O604   1.264       .  A
C601        C704   1.474       .  S
Cd602       O609   2.484       .  S
Cd602       O608   2.465       .  S
Cd602       O607   2.429   1_455  S
Cd602       O603   2.457   1_455  S
Cd602       O606   2.489       .  S
Cd602       O604   2.414       .  S
C605        O609   1.266       .  A
O610        C613   1.266       .  A
O610       Cd615   2.508       .  S
C611        O620   1.263       .  A
C611        O616   1.268       .  A
O612        C618   1.261       .  A
O612       Cd615   2.505       .  S
C613        O621   1.265       .  A
C614        O619   1.268       .  A
C614        O617   1.266       .  A
C614        C694   1.482       .  S
Cd615       O622   2.457       .  S
Cd615       O621   2.476       .  S
Cd615       O620   2.446       .  S
Cd615       O616   2.484       .  S
Cd615       O619   2.477       .  S
Cd615       O617   2.438       .  S
C618        O622   1.262       .  A
O623        C626   1.266       .  A
O623       Cd628   2.414       .  S
C624        O633   1.264       .  A
C624        O629   1.268       .  A
C624        C639   1.467       .  S
O625        C631   1.263       .  A
O625       Cd628   2.453       .  S
C626        O634   1.263       .  A
C627        O632   1.268       .  A
C627        O630   1.266       .  A
C627        C684   1.474       .  S
Cd628       O635   2.469       .  S
Cd628       O634   2.471       .  S
Cd628       O633   2.441       .  S
Cd628       O629   2.496       .  S
Cd628       O632   2.456       .  S
Cd628       O630   2.431       .  S
C631        O635   1.262       .  A
O636        C639   1.269       .  A
O636       Cd641   2.487       .  S
C637        O646   1.265       .  A
C637        O642   1.263       .  A
O638        C644   1.270       .  A
O638       Cd641   2.511       .  S
C639        O647   1.265       .  A
C640        O645   1.264       .  A
C640        O643   1.263       .  A
Cd641       O648   2.424       .  S
Cd641       O647   2.429       .  S
Cd641       O646   2.430   1_545  S
Cd641       O642   2.470   1_545  S
Cd641       O645   2.479       .  S
Cd641       O643   2.444       .  S
C644        O648   1.265       .  A
C644        C674   1.472       .  S
C649        C650   1.534   1_655  S
C649        C655   1.533       .  S
C649        C653   1.547       .  S
C649        C707   1.527   1_655  S
C650        H657   1.086       .  S
C650        C651   1.368       .  D
C651        C652   1.541   1_455  S
C651        C677   1.493       .  S
C652        C656   1.541       .  S
C652        C654   1.536       .  S
C652        H658   1.109       .  S
C653        H659   1.079       .  S
C653        C654   1.363       .  D
C654        C747   1.468   1_565  S
C655        H660   1.087       .  S
C655        C656   1.365       .  D
C656        C714   1.487       .  S
C661        C662   1.528       .  S
C661        C667   1.530       .  S
C661        C665   1.550       .  S
C661        C727   1.521       .  S
C662        H669   1.087       .  S
C662        C663   1.361       .  D
C663        C664   1.547       .  S
C663        C697   1.485       .  S
C664        C668   1.538       .  S
C664        C666   1.535       .  S
C664        H670   1.111       .  S
C665        H671   1.083       .  S
C665        C666   1.367       .  D
C666        C687   1.473       .  S
C667        H672   1.087       .  S
C667        C668   1.364       .  D
C668        C737   1.483       .  S
C673        C674   1.401       .  A
C673        C678   1.404       .  A
C673        H680   1.083       .  S
C674        C675   1.402   1_545  A
C675        C676   1.395       .  A
C675        F682   1.357       .  S
C676        C677   1.406       .  A
C676        H681   1.083       .  S
C677        C678   1.413   1_565  A
C678        F679   1.354       .  S
C683        C684   1.404       .  A
C683        C688   1.393       .  A
C683        H690   1.083       .  S
C684        C685   1.407       .  A
C685        C686   1.399       .  A
C685        F692   1.357       .  S
C686        C687   1.402       .  A
C686        H691   1.082       .  S
C687        C688   1.403       .  A
C688        F689   1.356       .  S
C693        C694   1.405       .  A
C693        C698   1.400       .  A
C693        H700   1.084       .  S
C694        C695   1.409       .  A
C695        C696   1.396       .  A
C695        F702   1.357       .  S
C696        C697   1.402       .  A
C696        H701   1.084       .  S
C697        C698   1.410       .  A
C698        F699   1.358       .  S
C703        C704   1.400       .  A
C703        C708   1.391       .  A
C703        H710   1.084       .  S
C704        C705   1.404       .  A
C705        C706   1.402       .  A
C705        F712   1.358       .  S
C706        C707   1.413       .  A
C706        H711   1.073       .  S
C707        C708   1.411       .  A
C708        F709   1.358       .  S
C713        C714   1.403       .  A
C713        C718   1.398       .  A
C713        H720   1.081   1_565  S
C714        C715   1.409       .  A
C715        C716   1.397       .  A
C715        F722   1.357       .  S
C716        C717   1.404       .  A
C716        H721   1.083       .  S
C717        C718   1.408       .  A
C718        F719   1.357   1_565  S
C723        C724   1.397       .  A
C723        C728   1.389       .  A
C723        H730   1.084       .  S
C724        C725   1.403       .  A
C725        C726   1.400       .  A
C725        F732   1.358       .  S
C726        C727   1.411       .  A
C726        H731   1.077       .  S
C727        C728   1.412       .  A
C728        F729   1.358       .  S
C733        C734   1.409       .  A
C733        C738   1.406       .  A
C733        H740   1.083       .  S
C734        C735   1.408       .  A
C735        C736   1.393       .  A
C735        F742   1.358       .  S
C736        C737   1.404       .  A
C736        H741   1.084       .  S
C737        C738   1.404       .  A
C738        F739   1.357       .  S
C743        C744   1.403       .  A
C743        C748   1.398       .  A
C743        H750   1.084       .  S
C744        C745   1.407   1_655  A
C745        C746   1.395       .  A
C745        F752   1.358       .  S
C746        C747   1.400   1_455  A
C746        H751   1.086       .  S
C747        C748   1.401       .  A
C748        F749   1.356       .  S
C753        H760   1.083       .  S
C754        C755   1.402       .  A
C755        C756   1.403       .  A
C755        F762   1.357       .  S
C756        C757   1.407       .  A
C756        H761   1.082       .  S
C757        C758   1.405   1_556  A
C763        C764   1.402       .  A
C763        C768   1.403       .  A
C763        H770   1.084       .  S
C764        C765   1.403   1_455  A
C765        C766   1.391       .  A
C765        F772   1.358       .  S
C766        C767   1.405       .  A
C766        H771   1.084       .  S
C767        C768   1.411   1_655  A
C773        C774   1.402       .  A
C773        C778   1.403   1_545  A
C773        H780   1.083       .  S
C774        C775   1.402   1_546  A
C775        C776   1.385       .  A
C775        F782   1.359       .  S
C776        C777   1.409   1_554  A
C776        H781   1.084       .  S
C777        C778   1.416       .  A
C783        C784   1.409       .  A
C783        C788   1.406       .  A
C783        H790   1.085       .  S
C784        C785   1.407       .  A
C785        C786   1.384       .  A
C785        F792   1.358       .  S
C786        C787   1.400       .  A
C786        H791   1.080       .  S
C787        C788   1.406       .  A
C788        F789   1.357       .  S
C793        C794   1.399       .  A
C793        C798   1.396   1_565  A
C793        H800   1.085   1_565  S
C795        F802   1.356       .  S
C796        C797   1.407       .  A
C797        C798   1.409   1_565  A
C798        F799   1.357       .  S
C803        C804   1.411       .  A
C803        C808   1.406       .  A
C803        H810   1.082       .  S
C804        C805   1.411       .  A
C805        C806   1.384       .  A
C805        F812   1.358       .  S
C806        C807   1.397       .  A
C806        H811   1.084       .  S
C807        C808   1.408       .  A
C808        F809   1.357       .  S
C813        C814   1.407       .  A
C813        C818   1.394       .  A
C813        H820   1.083       .  S
C814        C815   1.406   1_655  A
C815        C816   1.402       .  A
C815        F822   1.354       .  S
C816        C817   1.408   1_455  A
C816        H821   1.083       .  S
C817        C818   1.406       .  A
C818        F819   1.358       .  S
C823        C824   1.405       .  A
C824        C825   1.407       .  A
C825        C826   1.395       .  A
C825        F832   1.357       .  S
C826        C827   1.404       .  A
C826        H831   1.082       .  S
C828        F829   1.355       .  S
